
---------- Begin Simulation Statistics ----------
simSeconds                                   0.002544                       # Number of seconds simulated (Second)
simTicks                                   2544177720                       # Number of ticks simulated (Tick)
finalTick                                  2544177720                       # Number of ticks from beginning of simulation (restored from checkpoints and never reset) (Tick)
simFreq                                  1000000000000                       # The number of ticks per simulated second ((Tick/Second))
hostSeconds                                     53.06                       # Real time elapsed on the host (Second)
hostTickRate                                 47947249                       # The number of ticks simulated per host second (ticks/s) ((Tick/Second))
hostMemory                                    4491868                       # Number of bytes of host memory used (Byte)
simInsts                                     12030533                       # Number of instructions simulated (Count)
simOps                                       20712691                       # Number of ops (including micro ops) simulated (Count)
hostInstRate                                   226725                       # Simulator instruction rate (inst/s) ((Count/Second))
hostOpRate                                     390348                       # Simulator op (including micro ops) rate (op/s) ((Count/Second))
board.cache_hierarchy.l1dcaches.demandHits::processor.cores.core.data      2754115                       # number of demand (read+write) hits (Count)
board.cache_hierarchy.l1dcaches.demandHits::total      2754115                       # number of demand (read+write) hits (Count)
board.cache_hierarchy.l1dcaches.overallHits::processor.cores.core.data      2754115                       # number of overall hits (Count)
board.cache_hierarchy.l1dcaches.overallHits::total      2754115                       # number of overall hits (Count)
board.cache_hierarchy.l1dcaches.demandMisses::processor.cores.core.data        33014                       # number of demand (read+write) misses (Count)
board.cache_hierarchy.l1dcaches.demandMisses::total        33014                       # number of demand (read+write) misses (Count)
board.cache_hierarchy.l1dcaches.overallMisses::processor.cores.core.data        33014                       # number of overall misses (Count)
board.cache_hierarchy.l1dcaches.overallMisses::total        33014                       # number of overall misses (Count)
board.cache_hierarchy.l1dcaches.demandMissLatency::processor.cores.core.data    414002916                       # number of demand (read+write) miss ticks (Tick)
board.cache_hierarchy.l1dcaches.demandMissLatency::total    414002916                       # number of demand (read+write) miss ticks (Tick)
board.cache_hierarchy.l1dcaches.overallMissLatency::processor.cores.core.data    414002916                       # number of overall miss ticks (Tick)
board.cache_hierarchy.l1dcaches.overallMissLatency::total    414002916                       # number of overall miss ticks (Tick)
board.cache_hierarchy.l1dcaches.demandAccesses::processor.cores.core.data      2787129                       # number of demand (read+write) accesses (Count)
board.cache_hierarchy.l1dcaches.demandAccesses::total      2787129                       # number of demand (read+write) accesses (Count)
board.cache_hierarchy.l1dcaches.overallAccesses::processor.cores.core.data      2787129                       # number of overall (read+write) accesses (Count)
board.cache_hierarchy.l1dcaches.overallAccesses::total      2787129                       # number of overall (read+write) accesses (Count)
board.cache_hierarchy.l1dcaches.demandMissRate::processor.cores.core.data     0.011845                       # miss rate for demand accesses (Ratio)
board.cache_hierarchy.l1dcaches.demandMissRate::total     0.011845                       # miss rate for demand accesses (Ratio)
board.cache_hierarchy.l1dcaches.overallMissRate::processor.cores.core.data     0.011845                       # miss rate for overall accesses (Ratio)
board.cache_hierarchy.l1dcaches.overallMissRate::total     0.011845                       # miss rate for overall accesses (Ratio)
board.cache_hierarchy.l1dcaches.demandAvgMissLatency::processor.cores.core.data 12540.222815                       # average overall miss latency in ticks ((Tick/Count))
board.cache_hierarchy.l1dcaches.demandAvgMissLatency::total 12540.222815                       # average overall miss latency in ticks ((Tick/Count))
board.cache_hierarchy.l1dcaches.overallAvgMissLatency::processor.cores.core.data 12540.222815                       # average overall miss latency ((Tick/Count))
board.cache_hierarchy.l1dcaches.overallAvgMissLatency::total 12540.222815                       # average overall miss latency ((Tick/Count))
board.cache_hierarchy.l1dcaches.blockedCycles::no_mshrs            0                       # number of cycles access was blocked (Cycle)
board.cache_hierarchy.l1dcaches.blockedCycles::no_wbuffers            0                       # number of cycles access was blocked (Cycle)
board.cache_hierarchy.l1dcaches.blockedCycles::no_targets            7                       # number of cycles access was blocked (Cycle)
board.cache_hierarchy.l1dcaches.blockedCauses::no_mshrs            0                       # number of times access was blocked (Count)
board.cache_hierarchy.l1dcaches.blockedCauses::no_wbuffers            0                       # number of times access was blocked (Count)
board.cache_hierarchy.l1dcaches.blockedCauses::no_targets            1                       # number of times access was blocked (Count)
board.cache_hierarchy.l1dcaches.avgBlocked::no_mshrs          nan                       # average number of cycles each access was blocked ((Cycle/Count))
board.cache_hierarchy.l1dcaches.avgBlocked::no_wbuffers          nan                       # average number of cycles each access was blocked ((Cycle/Count))
board.cache_hierarchy.l1dcaches.avgBlocked::no_targets            7                       # average number of cycles each access was blocked ((Cycle/Count))
board.cache_hierarchy.l1dcaches.writebacks::writebacks        32537                       # number of writebacks (Count)
board.cache_hierarchy.l1dcaches.writebacks::total        32537                       # number of writebacks (Count)
board.cache_hierarchy.l1dcaches.demandMshrHits::processor.cores.core.data        16521                       # number of demand (read+write) MSHR hits (Count)
board.cache_hierarchy.l1dcaches.demandMshrHits::total        16521                       # number of demand (read+write) MSHR hits (Count)
board.cache_hierarchy.l1dcaches.overallMshrHits::processor.cores.core.data        16521                       # number of overall MSHR hits (Count)
board.cache_hierarchy.l1dcaches.overallMshrHits::total        16521                       # number of overall MSHR hits (Count)
board.cache_hierarchy.l1dcaches.demandMshrMisses::processor.cores.core.data        16493                       # number of demand (read+write) MSHR misses (Count)
board.cache_hierarchy.l1dcaches.demandMshrMisses::total        16493                       # number of demand (read+write) MSHR misses (Count)
board.cache_hierarchy.l1dcaches.overallMshrMisses::cache_hierarchy.l1dcaches.prefetcher        19929                       # number of overall MSHR misses (Count)
board.cache_hierarchy.l1dcaches.overallMshrMisses::processor.cores.core.data        16493                       # number of overall MSHR misses (Count)
board.cache_hierarchy.l1dcaches.overallMshrMisses::total        36422                       # number of overall MSHR misses (Count)
board.cache_hierarchy.l1dcaches.demandMshrMissLatency::processor.cores.core.data    244142724                       # number of demand (read+write) MSHR miss ticks (Tick)
board.cache_hierarchy.l1dcaches.demandMshrMissLatency::total    244142724                       # number of demand (read+write) MSHR miss ticks (Tick)
board.cache_hierarchy.l1dcaches.overallMshrMissLatency::cache_hierarchy.l1dcaches.prefetcher    277824618                       # number of overall MSHR miss ticks (Tick)
board.cache_hierarchy.l1dcaches.overallMshrMissLatency::processor.cores.core.data    244142724                       # number of overall MSHR miss ticks (Tick)
board.cache_hierarchy.l1dcaches.overallMshrMissLatency::total    521967342                       # number of overall MSHR miss ticks (Tick)
board.cache_hierarchy.l1dcaches.demandMshrMissRate::processor.cores.core.data     0.005918                       # mshr miss ratio for demand accesses (Ratio)
board.cache_hierarchy.l1dcaches.demandMshrMissRate::total     0.005918                       # mshr miss ratio for demand accesses (Ratio)
board.cache_hierarchy.l1dcaches.overallMshrMissRate::cache_hierarchy.l1dcaches.prefetcher          inf                       # mshr miss ratio for overall accesses (Ratio)
board.cache_hierarchy.l1dcaches.overallMshrMissRate::processor.cores.core.data     0.005918                       # mshr miss ratio for overall accesses (Ratio)
board.cache_hierarchy.l1dcaches.overallMshrMissRate::total     0.013068                       # mshr miss ratio for overall accesses (Ratio)
board.cache_hierarchy.l1dcaches.demandAvgMshrMissLatency::processor.cores.core.data 14802.808707                       # average overall mshr miss latency ((Tick/Count))
board.cache_hierarchy.l1dcaches.demandAvgMshrMissLatency::total 14802.808707                       # average overall mshr miss latency ((Tick/Count))
board.cache_hierarchy.l1dcaches.overallAvgMshrMissLatency::cache_hierarchy.l1dcaches.prefetcher 13940.720458                       # average overall mshr miss latency ((Tick/Count))
board.cache_hierarchy.l1dcaches.overallAvgMshrMissLatency::processor.cores.core.data 14802.808707                       # average overall mshr miss latency ((Tick/Count))
board.cache_hierarchy.l1dcaches.overallAvgMshrMissLatency::total 14331.100489                       # average overall mshr miss latency ((Tick/Count))
board.cache_hierarchy.l1dcaches.replacements        36575                       # number of replacements (Count)
board.cache_hierarchy.l1dcaches.HardPFReq.mshrMisses::cache_hierarchy.l1dcaches.prefetcher        19929                       # number of HardPFReq MSHR misses (Count)
board.cache_hierarchy.l1dcaches.HardPFReq.mshrMisses::total        19929                       # number of HardPFReq MSHR misses (Count)
board.cache_hierarchy.l1dcaches.HardPFReq.mshrMissLatency::cache_hierarchy.l1dcaches.prefetcher    277824618                       # number of HardPFReq MSHR miss ticks (Tick)
board.cache_hierarchy.l1dcaches.HardPFReq.mshrMissLatency::total    277824618                       # number of HardPFReq MSHR miss ticks (Tick)
board.cache_hierarchy.l1dcaches.HardPFReq.mshrMissRate::cache_hierarchy.l1dcaches.prefetcher          inf                       # mshr miss rate for HardPFReq accesses (Ratio)
board.cache_hierarchy.l1dcaches.HardPFReq.mshrMissRate::total          inf                       # mshr miss rate for HardPFReq accesses (Ratio)
board.cache_hierarchy.l1dcaches.HardPFReq.avgMshrMissLatency::cache_hierarchy.l1dcaches.prefetcher 13940.720458                       # average HardPFReq mshr miss latency ((Tick/Count))
board.cache_hierarchy.l1dcaches.HardPFReq.avgMshrMissLatency::total 13940.720458                       # average HardPFReq mshr miss latency ((Tick/Count))
board.cache_hierarchy.l1dcaches.LockedRMWReadReq.hits::processor.cores.core.data        75854                       # number of LockedRMWReadReq hits (Count)
board.cache_hierarchy.l1dcaches.LockedRMWReadReq.hits::total        75854                       # number of LockedRMWReadReq hits (Count)
board.cache_hierarchy.l1dcaches.LockedRMWReadReq.misses::processor.cores.core.data          667                       # number of LockedRMWReadReq misses (Count)
board.cache_hierarchy.l1dcaches.LockedRMWReadReq.misses::total          667                       # number of LockedRMWReadReq misses (Count)
board.cache_hierarchy.l1dcaches.LockedRMWReadReq.missLatency::processor.cores.core.data      2142744                       # number of LockedRMWReadReq miss ticks (Tick)
board.cache_hierarchy.l1dcaches.LockedRMWReadReq.missLatency::total      2142744                       # number of LockedRMWReadReq miss ticks (Tick)
board.cache_hierarchy.l1dcaches.LockedRMWReadReq.accesses::processor.cores.core.data        76521                       # number of LockedRMWReadReq accesses(hits+misses) (Count)
board.cache_hierarchy.l1dcaches.LockedRMWReadReq.accesses::total        76521                       # number of LockedRMWReadReq accesses(hits+misses) (Count)
board.cache_hierarchy.l1dcaches.LockedRMWReadReq.missRate::processor.cores.core.data     0.008717                       # miss rate for LockedRMWReadReq accesses (Ratio)
board.cache_hierarchy.l1dcaches.LockedRMWReadReq.missRate::total     0.008717                       # miss rate for LockedRMWReadReq accesses (Ratio)
board.cache_hierarchy.l1dcaches.LockedRMWReadReq.avgMissLatency::processor.cores.core.data  3212.509745                       # average LockedRMWReadReq miss latency ((Tick/Count))
board.cache_hierarchy.l1dcaches.LockedRMWReadReq.avgMissLatency::total  3212.509745                       # average LockedRMWReadReq miss latency ((Tick/Count))
board.cache_hierarchy.l1dcaches.LockedRMWReadReq.mshrMisses::processor.cores.core.data          667                       # number of LockedRMWReadReq MSHR misses (Count)
board.cache_hierarchy.l1dcaches.LockedRMWReadReq.mshrMisses::total          667                       # number of LockedRMWReadReq MSHR misses (Count)
board.cache_hierarchy.l1dcaches.LockedRMWReadReq.mshrMissLatency::processor.cores.core.data    125298354                       # number of LockedRMWReadReq MSHR miss ticks (Tick)
board.cache_hierarchy.l1dcaches.LockedRMWReadReq.mshrMissLatency::total    125298354                       # number of LockedRMWReadReq MSHR miss ticks (Tick)
board.cache_hierarchy.l1dcaches.LockedRMWReadReq.mshrMissRate::processor.cores.core.data     0.008717                       # mshr miss rate for LockedRMWReadReq accesses (Ratio)
board.cache_hierarchy.l1dcaches.LockedRMWReadReq.mshrMissRate::total     0.008717                       # mshr miss rate for LockedRMWReadReq accesses (Ratio)
board.cache_hierarchy.l1dcaches.LockedRMWReadReq.avgMshrMissLatency::processor.cores.core.data 187853.604198                       # average LockedRMWReadReq mshr miss latency ((Tick/Count))
board.cache_hierarchy.l1dcaches.LockedRMWReadReq.avgMshrMissLatency::total 187853.604198                       # average LockedRMWReadReq mshr miss latency ((Tick/Count))
board.cache_hierarchy.l1dcaches.LockedRMWWriteReq.hits::processor.cores.core.data        76521                       # number of LockedRMWWriteReq hits (Count)
board.cache_hierarchy.l1dcaches.LockedRMWWriteReq.hits::total        76521                       # number of LockedRMWWriteReq hits (Count)
board.cache_hierarchy.l1dcaches.LockedRMWWriteReq.accesses::processor.cores.core.data        76521                       # number of LockedRMWWriteReq accesses(hits+misses) (Count)
board.cache_hierarchy.l1dcaches.LockedRMWWriteReq.accesses::total        76521                       # number of LockedRMWWriteReq accesses(hits+misses) (Count)
board.cache_hierarchy.l1dcaches.ReadReq.hits::processor.cores.core.data      2203441                       # number of ReadReq hits (Count)
board.cache_hierarchy.l1dcaches.ReadReq.hits::total      2203441                       # number of ReadReq hits (Count)
board.cache_hierarchy.l1dcaches.ReadReq.misses::processor.cores.core.data        23109                       # number of ReadReq misses (Count)
board.cache_hierarchy.l1dcaches.ReadReq.misses::total        23109                       # number of ReadReq misses (Count)
board.cache_hierarchy.l1dcaches.ReadReq.missLatency::processor.cores.core.data    214776786                       # number of ReadReq miss ticks (Tick)
board.cache_hierarchy.l1dcaches.ReadReq.missLatency::total    214776786                       # number of ReadReq miss ticks (Tick)
board.cache_hierarchy.l1dcaches.ReadReq.accesses::processor.cores.core.data      2226550                       # number of ReadReq accesses(hits+misses) (Count)
board.cache_hierarchy.l1dcaches.ReadReq.accesses::total      2226550                       # number of ReadReq accesses(hits+misses) (Count)
board.cache_hierarchy.l1dcaches.ReadReq.missRate::processor.cores.core.data     0.010379                       # miss rate for ReadReq accesses (Ratio)
board.cache_hierarchy.l1dcaches.ReadReq.missRate::total     0.010379                       # miss rate for ReadReq accesses (Ratio)
board.cache_hierarchy.l1dcaches.ReadReq.avgMissLatency::processor.cores.core.data  9294.075295                       # average ReadReq miss latency ((Tick/Count))
board.cache_hierarchy.l1dcaches.ReadReq.avgMissLatency::total  9294.075295                       # average ReadReq miss latency ((Tick/Count))
board.cache_hierarchy.l1dcaches.ReadReq.mshrHits::processor.cores.core.data        16335                       # number of ReadReq MSHR hits (Count)
board.cache_hierarchy.l1dcaches.ReadReq.mshrHits::total        16335                       # number of ReadReq MSHR hits (Count)
board.cache_hierarchy.l1dcaches.ReadReq.mshrMisses::processor.cores.core.data         6774                       # number of ReadReq MSHR misses (Count)
board.cache_hierarchy.l1dcaches.ReadReq.mshrMisses::total         6774                       # number of ReadReq MSHR misses (Count)
board.cache_hierarchy.l1dcaches.ReadReq.mshrMissLatency::processor.cores.core.data     51797928                       # number of ReadReq MSHR miss ticks (Tick)
board.cache_hierarchy.l1dcaches.ReadReq.mshrMissLatency::total     51797928                       # number of ReadReq MSHR miss ticks (Tick)
board.cache_hierarchy.l1dcaches.ReadReq.mshrMissRate::processor.cores.core.data     0.003042                       # mshr miss rate for ReadReq accesses (Ratio)
board.cache_hierarchy.l1dcaches.ReadReq.mshrMissRate::total     0.003042                       # mshr miss rate for ReadReq accesses (Ratio)
board.cache_hierarchy.l1dcaches.ReadReq.avgMshrMissLatency::processor.cores.core.data  7646.579274                       # average ReadReq mshr miss latency ((Tick/Count))
board.cache_hierarchy.l1dcaches.ReadReq.avgMshrMissLatency::total  7646.579274                       # average ReadReq mshr miss latency ((Tick/Count))
board.cache_hierarchy.l1dcaches.WriteReq.hits::processor.cores.core.data       550674                       # number of WriteReq hits (Count)
board.cache_hierarchy.l1dcaches.WriteReq.hits::total       550674                       # number of WriteReq hits (Count)
board.cache_hierarchy.l1dcaches.WriteReq.misses::processor.cores.core.data         9905                       # number of WriteReq misses (Count)
board.cache_hierarchy.l1dcaches.WriteReq.misses::total         9905                       # number of WriteReq misses (Count)
board.cache_hierarchy.l1dcaches.WriteReq.missLatency::processor.cores.core.data    199226130                       # number of WriteReq miss ticks (Tick)
board.cache_hierarchy.l1dcaches.WriteReq.missLatency::total    199226130                       # number of WriteReq miss ticks (Tick)
board.cache_hierarchy.l1dcaches.WriteReq.accesses::processor.cores.core.data       560579                       # number of WriteReq accesses(hits+misses) (Count)
board.cache_hierarchy.l1dcaches.WriteReq.accesses::total       560579                       # number of WriteReq accesses(hits+misses) (Count)
board.cache_hierarchy.l1dcaches.WriteReq.missRate::processor.cores.core.data     0.017669                       # miss rate for WriteReq accesses (Ratio)
board.cache_hierarchy.l1dcaches.WriteReq.missRate::total     0.017669                       # miss rate for WriteReq accesses (Ratio)
board.cache_hierarchy.l1dcaches.WriteReq.avgMissLatency::processor.cores.core.data 20113.693084                       # average WriteReq miss latency ((Tick/Count))
board.cache_hierarchy.l1dcaches.WriteReq.avgMissLatency::total 20113.693084                       # average WriteReq miss latency ((Tick/Count))
board.cache_hierarchy.l1dcaches.WriteReq.mshrHits::processor.cores.core.data          186                       # number of WriteReq MSHR hits (Count)
board.cache_hierarchy.l1dcaches.WriteReq.mshrHits::total          186                       # number of WriteReq MSHR hits (Count)
board.cache_hierarchy.l1dcaches.WriteReq.mshrMisses::processor.cores.core.data         9719                       # number of WriteReq MSHR misses (Count)
board.cache_hierarchy.l1dcaches.WriteReq.mshrMisses::total         9719                       # number of WriteReq MSHR misses (Count)
board.cache_hierarchy.l1dcaches.WriteReq.mshrMissLatency::processor.cores.core.data    192344796                       # number of WriteReq MSHR miss ticks (Tick)
board.cache_hierarchy.l1dcaches.WriteReq.mshrMissLatency::total    192344796                       # number of WriteReq MSHR miss ticks (Tick)
board.cache_hierarchy.l1dcaches.WriteReq.mshrMissRate::processor.cores.core.data     0.017337                       # mshr miss rate for WriteReq accesses (Ratio)
board.cache_hierarchy.l1dcaches.WriteReq.mshrMissRate::total     0.017337                       # mshr miss rate for WriteReq accesses (Ratio)
board.cache_hierarchy.l1dcaches.WriteReq.avgMshrMissLatency::processor.cores.core.data 19790.595329                       # average WriteReq mshr miss latency ((Tick/Count))
board.cache_hierarchy.l1dcaches.WriteReq.avgMshrMissLatency::total 19790.595329                       # average WriteReq mshr miss latency ((Tick/Count))
board.cache_hierarchy.l1dcaches.power_state.pwrStateResidencyTicks::UNDEFINED   2544177720                       # Cumulative time (in ticks) in various power states (Tick)
board.cache_hierarchy.l1dcaches.prefetcher.demandMshrMisses        16493                       # demands not covered by prefetchs (Count)
board.cache_hierarchy.l1dcaches.prefetcher.pfIssued        67576                       # number of hwpf issued (Count)
board.cache_hierarchy.l1dcaches.prefetcher.pfUnused         1786                       # number of HardPF blocks evicted w/o reference (Count)
board.cache_hierarchy.l1dcaches.prefetcher.pfUseful        17058                       # number of useful prefetch (Count)
board.cache_hierarchy.l1dcaches.prefetcher.pfUsefulButMiss            0                       # number of hit on prefetch but cache block is not in an usable state (Count)
board.cache_hierarchy.l1dcaches.prefetcher.accuracy     0.252427                       # accuracy of the prefetcher (Count)
board.cache_hierarchy.l1dcaches.prefetcher.coverage     0.508420                       # coverage brought by this prefetcher (Count)
board.cache_hierarchy.l1dcaches.prefetcher.pfHitInCache        40810                       # number of prefetches hitting in cache (Count)
board.cache_hierarchy.l1dcaches.prefetcher.pfHitInMSHR         6837                       # number of prefetches hitting in a MSHR (Count)
board.cache_hierarchy.l1dcaches.prefetcher.pfHitInWB            0                       # number of prefetches hit in the Write Buffer (Count)
board.cache_hierarchy.l1dcaches.prefetcher.pfLate        47647                       # number of late prefetches (hitting in cache, MSHR or WB) (Count)
board.cache_hierarchy.l1dcaches.prefetcher.pfIdentified        68099                       # number of prefetch candidates identified (Count)
board.cache_hierarchy.l1dcaches.prefetcher.pfBufferHit          361                       # number of redundant prefetches already in prefetch queue (Count)
board.cache_hierarchy.l1dcaches.prefetcher.pfInCache            0                       # number of redundant prefetches already in cache/mshr dropped (Count)
board.cache_hierarchy.l1dcaches.prefetcher.pfRemovedDemand           60                       # number of prefetches dropped due to a demand for the same address (Count)
board.cache_hierarchy.l1dcaches.prefetcher.pfRemovedFull            0                       # number of prefetches dropped due to prefetch queue size (Count)
board.cache_hierarchy.l1dcaches.prefetcher.pfSpanPage         3261                       # number of prefetches that crossed the page (Count)
board.cache_hierarchy.l1dcaches.prefetcher.pfUsefulSpanPage         2488                       # number of prefetches that is useful and crossed the page (Count)
board.cache_hierarchy.l1dcaches.prefetcher.power_state.pwrStateResidencyTicks::UNDEFINED   2544177720                       # Cumulative time (in ticks) in various power states (Tick)
board.cache_hierarchy.l1dcaches.tags.tagsInUse   507.107489                       # Average ticks per tags in use ((Tick/Count))
board.cache_hierarchy.l1dcaches.tags.totalRefs      2943581                       # Total number of references to valid blocks. (Count)
board.cache_hierarchy.l1dcaches.tags.sampledRefs        37087                       # Sample count of references to valid blocks. (Count)
board.cache_hierarchy.l1dcaches.tags.avgRefs    79.369617                       # Average number of references to valid blocks. ((Count/Count))
board.cache_hierarchy.l1dcaches.tags.warmupTick       132534                       # The tick when the warmup percentage was hit. (Tick)
board.cache_hierarchy.l1dcaches.tags.occupancies::cache_hierarchy.l1dcaches.prefetcher   334.064218                       # Average occupied blocks per tick, per requestor ((Count/Tick))
board.cache_hierarchy.l1dcaches.tags.occupancies::processor.cores.core.data   173.043271                       # Average occupied blocks per tick, per requestor ((Count/Tick))
board.cache_hierarchy.l1dcaches.tags.avgOccs::cache_hierarchy.l1dcaches.prefetcher     0.652469                       # Average percentage of cache occupancy ((Ratio/Tick))
board.cache_hierarchy.l1dcaches.tags.avgOccs::processor.cores.core.data     0.337975                       # Average percentage of cache occupancy ((Ratio/Tick))
board.cache_hierarchy.l1dcaches.tags.avgOccs::total     0.990444                       # Average percentage of cache occupancy ((Ratio/Tick))
board.cache_hierarchy.l1dcaches.tags.occupanciesTaskId::1022          114                       # Occupied blocks per task id (Count)
board.cache_hierarchy.l1dcaches.tags.occupanciesTaskId::1024          398                       # Occupied blocks per task id (Count)
board.cache_hierarchy.l1dcaches.tags.ageTaskId_1022::0           63                       # Occupied blocks per task id, per block age (Count)
board.cache_hierarchy.l1dcaches.tags.ageTaskId_1022::1           16                       # Occupied blocks per task id, per block age (Count)
board.cache_hierarchy.l1dcaches.tags.ageTaskId_1022::2           35                       # Occupied blocks per task id, per block age (Count)
board.cache_hierarchy.l1dcaches.tags.ageTaskId_1024::0          267                       # Occupied blocks per task id, per block age (Count)
board.cache_hierarchy.l1dcaches.tags.ageTaskId_1024::1          114                       # Occupied blocks per task id, per block age (Count)
board.cache_hierarchy.l1dcaches.tags.ageTaskId_1024::2           16                       # Occupied blocks per task id, per block age (Count)
board.cache_hierarchy.l1dcaches.tags.ageTaskId_1024::3            1                       # Occupied blocks per task id, per block age (Count)
board.cache_hierarchy.l1dcaches.tags.ratioOccsTaskId::1022     0.222656                       # Ratio of occupied blocks and all blocks, per task id (Ratio)
board.cache_hierarchy.l1dcaches.tags.ratioOccsTaskId::1024     0.777344                       # Ratio of occupied blocks and all blocks, per task id (Ratio)
board.cache_hierarchy.l1dcaches.tags.tagAccesses     23558455                       # Number of tag accesses (Count)
board.cache_hierarchy.l1dcaches.tags.dataAccesses     23558455                       # Number of data accesses (Count)
board.cache_hierarchy.l1dcaches.tags.power_state.pwrStateResidencyTicks::UNDEFINED   2544177720                       # Cumulative time (in ticks) in various power states (Tick)
board.cache_hierarchy.l1icaches.demandHits::processor.cores.core.inst      2299352                       # number of demand (read+write) hits (Count)
board.cache_hierarchy.l1icaches.demandHits::total      2299352                       # number of demand (read+write) hits (Count)
board.cache_hierarchy.l1icaches.overallHits::processor.cores.core.inst      2299352                       # number of overall hits (Count)
board.cache_hierarchy.l1icaches.overallHits::total      2299352                       # number of overall hits (Count)
board.cache_hierarchy.l1icaches.demandMisses::processor.cores.core.inst         3314                       # number of demand (read+write) misses (Count)
board.cache_hierarchy.l1icaches.demandMisses::total         3314                       # number of demand (read+write) misses (Count)
board.cache_hierarchy.l1icaches.overallMisses::processor.cores.core.inst         3314                       # number of overall misses (Count)
board.cache_hierarchy.l1icaches.overallMisses::total         3314                       # number of overall misses (Count)
board.cache_hierarchy.l1icaches.demandMissLatency::processor.cores.core.inst    180837426                       # number of demand (read+write) miss ticks (Tick)
board.cache_hierarchy.l1icaches.demandMissLatency::total    180837426                       # number of demand (read+write) miss ticks (Tick)
board.cache_hierarchy.l1icaches.overallMissLatency::processor.cores.core.inst    180837426                       # number of overall miss ticks (Tick)
board.cache_hierarchy.l1icaches.overallMissLatency::total    180837426                       # number of overall miss ticks (Tick)
board.cache_hierarchy.l1icaches.demandAccesses::processor.cores.core.inst      2302666                       # number of demand (read+write) accesses (Count)
board.cache_hierarchy.l1icaches.demandAccesses::total      2302666                       # number of demand (read+write) accesses (Count)
board.cache_hierarchy.l1icaches.overallAccesses::processor.cores.core.inst      2302666                       # number of overall (read+write) accesses (Count)
board.cache_hierarchy.l1icaches.overallAccesses::total      2302666                       # number of overall (read+write) accesses (Count)
board.cache_hierarchy.l1icaches.demandMissRate::processor.cores.core.inst     0.001439                       # miss rate for demand accesses (Ratio)
board.cache_hierarchy.l1icaches.demandMissRate::total     0.001439                       # miss rate for demand accesses (Ratio)
board.cache_hierarchy.l1icaches.overallMissRate::processor.cores.core.inst     0.001439                       # miss rate for overall accesses (Ratio)
board.cache_hierarchy.l1icaches.overallMissRate::total     0.001439                       # miss rate for overall accesses (Ratio)
board.cache_hierarchy.l1icaches.demandAvgMissLatency::processor.cores.core.inst 54567.720579                       # average overall miss latency in ticks ((Tick/Count))
board.cache_hierarchy.l1icaches.demandAvgMissLatency::total 54567.720579                       # average overall miss latency in ticks ((Tick/Count))
board.cache_hierarchy.l1icaches.overallAvgMissLatency::processor.cores.core.inst 54567.720579                       # average overall miss latency ((Tick/Count))
board.cache_hierarchy.l1icaches.overallAvgMissLatency::total 54567.720579                       # average overall miss latency ((Tick/Count))
board.cache_hierarchy.l1icaches.blockedCycles::no_mshrs            0                       # number of cycles access was blocked (Cycle)
board.cache_hierarchy.l1icaches.blockedCycles::no_wbuffers            0                       # number of cycles access was blocked (Cycle)
board.cache_hierarchy.l1icaches.blockedCycles::no_targets            0                       # number of cycles access was blocked (Cycle)
board.cache_hierarchy.l1icaches.blockedCauses::no_mshrs            0                       # number of times access was blocked (Count)
board.cache_hierarchy.l1icaches.blockedCauses::no_wbuffers            0                       # number of times access was blocked (Count)
board.cache_hierarchy.l1icaches.blockedCauses::no_targets            0                       # number of times access was blocked (Count)
board.cache_hierarchy.l1icaches.avgBlocked::no_mshrs          nan                       # average number of cycles each access was blocked ((Cycle/Count))
board.cache_hierarchy.l1icaches.avgBlocked::no_wbuffers          nan                       # average number of cycles each access was blocked ((Cycle/Count))
board.cache_hierarchy.l1icaches.avgBlocked::no_targets          nan                       # average number of cycles each access was blocked ((Cycle/Count))
board.cache_hierarchy.l1icaches.demandMshrHits::processor.cores.core.inst          667                       # number of demand (read+write) MSHR hits (Count)
board.cache_hierarchy.l1icaches.demandMshrHits::total          667                       # number of demand (read+write) MSHR hits (Count)
board.cache_hierarchy.l1icaches.overallMshrHits::processor.cores.core.inst          667                       # number of overall MSHR hits (Count)
board.cache_hierarchy.l1icaches.overallMshrHits::total          667                       # number of overall MSHR hits (Count)
board.cache_hierarchy.l1icaches.demandMshrMisses::processor.cores.core.inst         2647                       # number of demand (read+write) MSHR misses (Count)
board.cache_hierarchy.l1icaches.demandMshrMisses::total         2647                       # number of demand (read+write) MSHR misses (Count)
board.cache_hierarchy.l1icaches.overallMshrMisses::processor.cores.core.inst         2647                       # number of overall MSHR misses (Count)
board.cache_hierarchy.l1icaches.overallMshrMisses::total         2647                       # number of overall MSHR misses (Count)
board.cache_hierarchy.l1icaches.demandMshrMissLatency::processor.cores.core.inst    143591598                       # number of demand (read+write) MSHR miss ticks (Tick)
board.cache_hierarchy.l1icaches.demandMshrMissLatency::total    143591598                       # number of demand (read+write) MSHR miss ticks (Tick)
board.cache_hierarchy.l1icaches.overallMshrMissLatency::processor.cores.core.inst    143591598                       # number of overall MSHR miss ticks (Tick)
board.cache_hierarchy.l1icaches.overallMshrMissLatency::total    143591598                       # number of overall MSHR miss ticks (Tick)
board.cache_hierarchy.l1icaches.demandMshrMissRate::processor.cores.core.inst     0.001150                       # mshr miss ratio for demand accesses (Ratio)
board.cache_hierarchy.l1icaches.demandMshrMissRate::total     0.001150                       # mshr miss ratio for demand accesses (Ratio)
board.cache_hierarchy.l1icaches.overallMshrMissRate::processor.cores.core.inst     0.001150                       # mshr miss ratio for overall accesses (Ratio)
board.cache_hierarchy.l1icaches.overallMshrMissRate::total     0.001150                       # mshr miss ratio for overall accesses (Ratio)
board.cache_hierarchy.l1icaches.demandAvgMshrMissLatency::processor.cores.core.inst 54246.920287                       # average overall mshr miss latency ((Tick/Count))
board.cache_hierarchy.l1icaches.demandAvgMshrMissLatency::total 54246.920287                       # average overall mshr miss latency ((Tick/Count))
board.cache_hierarchy.l1icaches.overallAvgMshrMissLatency::processor.cores.core.inst 54246.920287                       # average overall mshr miss latency ((Tick/Count))
board.cache_hierarchy.l1icaches.overallAvgMshrMissLatency::total 54246.920287                       # average overall mshr miss latency ((Tick/Count))
board.cache_hierarchy.l1icaches.replacements         2133                       # number of replacements (Count)
board.cache_hierarchy.l1icaches.ReadReq.hits::processor.cores.core.inst      2299352                       # number of ReadReq hits (Count)
board.cache_hierarchy.l1icaches.ReadReq.hits::total      2299352                       # number of ReadReq hits (Count)
board.cache_hierarchy.l1icaches.ReadReq.misses::processor.cores.core.inst         3314                       # number of ReadReq misses (Count)
board.cache_hierarchy.l1icaches.ReadReq.misses::total         3314                       # number of ReadReq misses (Count)
board.cache_hierarchy.l1icaches.ReadReq.missLatency::processor.cores.core.inst    180837426                       # number of ReadReq miss ticks (Tick)
board.cache_hierarchy.l1icaches.ReadReq.missLatency::total    180837426                       # number of ReadReq miss ticks (Tick)
board.cache_hierarchy.l1icaches.ReadReq.accesses::processor.cores.core.inst      2302666                       # number of ReadReq accesses(hits+misses) (Count)
board.cache_hierarchy.l1icaches.ReadReq.accesses::total      2302666                       # number of ReadReq accesses(hits+misses) (Count)
board.cache_hierarchy.l1icaches.ReadReq.missRate::processor.cores.core.inst     0.001439                       # miss rate for ReadReq accesses (Ratio)
board.cache_hierarchy.l1icaches.ReadReq.missRate::total     0.001439                       # miss rate for ReadReq accesses (Ratio)
board.cache_hierarchy.l1icaches.ReadReq.avgMissLatency::processor.cores.core.inst 54567.720579                       # average ReadReq miss latency ((Tick/Count))
board.cache_hierarchy.l1icaches.ReadReq.avgMissLatency::total 54567.720579                       # average ReadReq miss latency ((Tick/Count))
board.cache_hierarchy.l1icaches.ReadReq.mshrHits::processor.cores.core.inst          667                       # number of ReadReq MSHR hits (Count)
board.cache_hierarchy.l1icaches.ReadReq.mshrHits::total          667                       # number of ReadReq MSHR hits (Count)
board.cache_hierarchy.l1icaches.ReadReq.mshrMisses::processor.cores.core.inst         2647                       # number of ReadReq MSHR misses (Count)
board.cache_hierarchy.l1icaches.ReadReq.mshrMisses::total         2647                       # number of ReadReq MSHR misses (Count)
board.cache_hierarchy.l1icaches.ReadReq.mshrMissLatency::processor.cores.core.inst    143591598                       # number of ReadReq MSHR miss ticks (Tick)
board.cache_hierarchy.l1icaches.ReadReq.mshrMissLatency::total    143591598                       # number of ReadReq MSHR miss ticks (Tick)
board.cache_hierarchy.l1icaches.ReadReq.mshrMissRate::processor.cores.core.inst     0.001150                       # mshr miss rate for ReadReq accesses (Ratio)
board.cache_hierarchy.l1icaches.ReadReq.mshrMissRate::total     0.001150                       # mshr miss rate for ReadReq accesses (Ratio)
board.cache_hierarchy.l1icaches.ReadReq.avgMshrMissLatency::processor.cores.core.inst 54246.920287                       # average ReadReq mshr miss latency ((Tick/Count))
board.cache_hierarchy.l1icaches.ReadReq.avgMshrMissLatency::total 54246.920287                       # average ReadReq mshr miss latency ((Tick/Count))
board.cache_hierarchy.l1icaches.power_state.pwrStateResidencyTicks::UNDEFINED   2544177720                       # Cumulative time (in ticks) in various power states (Tick)
board.cache_hierarchy.l1icaches.prefetcher.demandMshrMisses         2647                       # demands not covered by prefetchs (Count)
board.cache_hierarchy.l1icaches.prefetcher.pfIssued            0                       # number of hwpf issued (Count)
board.cache_hierarchy.l1icaches.prefetcher.pfUseful            0                       # number of useful prefetch (Count)
board.cache_hierarchy.l1icaches.prefetcher.pfUsefulButMiss            0                       # number of hit on prefetch but cache block is not in an usable state (Count)
board.cache_hierarchy.l1icaches.prefetcher.accuracy          nan                       # accuracy of the prefetcher (Count)
board.cache_hierarchy.l1icaches.prefetcher.coverage            0                       # coverage brought by this prefetcher (Count)
board.cache_hierarchy.l1icaches.prefetcher.pfHitInCache            0                       # number of prefetches hitting in cache (Count)
board.cache_hierarchy.l1icaches.prefetcher.pfHitInMSHR            0                       # number of prefetches hitting in a MSHR (Count)
board.cache_hierarchy.l1icaches.prefetcher.pfHitInWB            0                       # number of prefetches hit in the Write Buffer (Count)
board.cache_hierarchy.l1icaches.prefetcher.pfLate            0                       # number of late prefetches (hitting in cache, MSHR or WB) (Count)
board.cache_hierarchy.l1icaches.prefetcher.pfIdentified            0                       # number of prefetch candidates identified (Count)
board.cache_hierarchy.l1icaches.prefetcher.pfBufferHit            0                       # number of redundant prefetches already in prefetch queue (Count)
board.cache_hierarchy.l1icaches.prefetcher.pfInCache            0                       # number of redundant prefetches already in cache/mshr dropped (Count)
board.cache_hierarchy.l1icaches.prefetcher.pfRemovedDemand            0                       # number of prefetches dropped due to a demand for the same address (Count)
board.cache_hierarchy.l1icaches.prefetcher.pfRemovedFull            0                       # number of prefetches dropped due to prefetch queue size (Count)
board.cache_hierarchy.l1icaches.prefetcher.pfSpanPage            0                       # number of prefetches that crossed the page (Count)
board.cache_hierarchy.l1icaches.prefetcher.pfUsefulSpanPage            0                       # number of prefetches that is useful and crossed the page (Count)
board.cache_hierarchy.l1icaches.prefetcher.power_state.pwrStateResidencyTicks::UNDEFINED   2544177720                       # Cumulative time (in ticks) in various power states (Tick)
board.cache_hierarchy.l1icaches.tags.tagsInUse   508.651561                       # Average ticks per tags in use ((Tick/Count))
board.cache_hierarchy.l1icaches.tags.totalRefs      2301998                       # Total number of references to valid blocks. (Count)
board.cache_hierarchy.l1icaches.tags.sampledRefs         2646                       # Sample count of references to valid blocks. (Count)
board.cache_hierarchy.l1icaches.tags.avgRefs   869.991686                       # Average number of references to valid blocks. ((Count/Count))
board.cache_hierarchy.l1icaches.tags.warmupTick        70152                       # The tick when the warmup percentage was hit. (Tick)
board.cache_hierarchy.l1icaches.tags.occupancies::processor.cores.core.inst   508.651561                       # Average occupied blocks per tick, per requestor ((Count/Tick))
board.cache_hierarchy.l1icaches.tags.avgOccs::processor.cores.core.inst     0.993460                       # Average percentage of cache occupancy ((Ratio/Tick))
board.cache_hierarchy.l1icaches.tags.avgOccs::total     0.993460                       # Average percentage of cache occupancy ((Ratio/Tick))
board.cache_hierarchy.l1icaches.tags.occupanciesTaskId::1024          512                       # Occupied blocks per task id (Count)
board.cache_hierarchy.l1icaches.tags.ageTaskId_1024::0          301                       # Occupied blocks per task id, per block age (Count)
board.cache_hierarchy.l1icaches.tags.ageTaskId_1024::1            8                       # Occupied blocks per task id, per block age (Count)
board.cache_hierarchy.l1icaches.tags.ageTaskId_1024::2           88                       # Occupied blocks per task id, per block age (Count)
board.cache_hierarchy.l1icaches.tags.ageTaskId_1024::3          115                       # Occupied blocks per task id, per block age (Count)
board.cache_hierarchy.l1icaches.tags.ratioOccsTaskId::1024            1                       # Ratio of occupied blocks and all blocks, per task id (Ratio)
board.cache_hierarchy.l1icaches.tags.tagAccesses     18423974                       # Number of tag accesses (Count)
board.cache_hierarchy.l1icaches.tags.dataAccesses     18423974                       # Number of data accesses (Count)
board.cache_hierarchy.l1icaches.tags.power_state.pwrStateResidencyTicks::UNDEFINED   2544177720                       # Cumulative time (in ticks) in various power states (Tick)
board.cache_hierarchy.l2bus.transDist::ReadResp        29346                       # Transaction distribution (Count)
board.cache_hierarchy.l2bus.transDist::WritebackDirty        32537                       # Transaction distribution (Count)
board.cache_hierarchy.l2bus.transDist::CleanEvict         6172                       # Transaction distribution (Count)
board.cache_hierarchy.l2bus.transDist::HardPFReq         6430                       # Transaction distribution (Count)
board.cache_hierarchy.l2bus.transDist::UpgradeReq            1                       # Transaction distribution (Count)
board.cache_hierarchy.l2bus.transDist::UpgradeResp            1                       # Transaction distribution (Count)
board.cache_hierarchy.l2bus.transDist::ReadExReq        10387                       # Transaction distribution (Count)
board.cache_hierarchy.l2bus.transDist::ReadExResp        10387                       # Transaction distribution (Count)
board.cache_hierarchy.l2bus.transDist::ReadSharedReq        29348                       # Transaction distribution (Count)
board.cache_hierarchy.l2bus.pktCount_board.cache_hierarchy.l1icaches.mem_side_port::board.cache_hierarchy.l2cache.cpu_side_port         7423                       # Packet count per connected requestor and responder (Count)
board.cache_hierarchy.l2bus.pktCount_board.cache_hierarchy.l1dcaches.mem_side_port::board.cache_hierarchy.l2cache.cpu_side_port       110752                       # Packet count per connected requestor and responder (Count)
board.cache_hierarchy.l2bus.pktCount::total       118175                       # Packet count per connected requestor and responder (Count)
board.cache_hierarchy.l2bus.pktSize_board.cache_hierarchy.l1icaches.mem_side_port::board.cache_hierarchy.l2cache.cpu_side_port       169152                       # Cumulative packet size per connected requestor and responder (Byte)
board.cache_hierarchy.l2bus.pktSize_board.cache_hierarchy.l1dcaches.mem_side_port::board.cache_hierarchy.l2cache.cpu_side_port      4455936                       # Cumulative packet size per connected requestor and responder (Byte)
board.cache_hierarchy.l2bus.pktSize::total      4625088                       # Cumulative packet size per connected requestor and responder (Byte)
board.cache_hierarchy.l2bus.snoops               6434                       # Total snoops (Count)
board.cache_hierarchy.l2bus.snoopTraffic          192                       # Total snoop traffic (Byte)
board.cache_hierarchy.l2bus.snoopFanout::samples        46167                       # Request fanout histogram (Count)
board.cache_hierarchy.l2bus.snoopFanout::mean     0.000217                       # Request fanout histogram (Count)
board.cache_hierarchy.l2bus.snoopFanout::stdev     0.014716                       # Request fanout histogram (Count)
board.cache_hierarchy.l2bus.snoopFanout::underflows            0      0.00%      0.00% # Request fanout histogram (Count)
board.cache_hierarchy.l2bus.snoopFanout::0        46157     99.98%     99.98% # Request fanout histogram (Count)
board.cache_hierarchy.l2bus.snoopFanout::1           10      0.02%    100.00% # Request fanout histogram (Count)
board.cache_hierarchy.l2bus.snoopFanout::2            0      0.00%    100.00% # Request fanout histogram (Count)
board.cache_hierarchy.l2bus.snoopFanout::overflows            0      0.00%    100.00% # Request fanout histogram (Count)
board.cache_hierarchy.l2bus.snoopFanout::min_value            0                       # Request fanout histogram (Count)
board.cache_hierarchy.l2bus.snoopFanout::max_value            1                       # Request fanout histogram (Count)
board.cache_hierarchy.l2bus.snoopFanout::total        46167                       # Request fanout histogram (Count)
board.cache_hierarchy.l2bus.power_state.pwrStateResidencyTicks::UNDEFINED   2544177720                       # Cumulative time (in ticks) in various power states (Tick)
board.cache_hierarchy.l2bus.reqLayer0.occupancy     35002573                       # Layer occupancy (ticks) (Tick)
board.cache_hierarchy.l2bus.reqLayer0.utilization          0.0                       # Layer utilization (Ratio)
board.cache_hierarchy.l2bus.respLayer0.occupancy      1764888                       # Layer occupancy (ticks) (Tick)
board.cache_hierarchy.l2bus.respLayer0.utilization          0.0                       # Layer utilization (Ratio)
board.cache_hierarchy.l2bus.respLayer1.occupancy     24700164                       # Layer occupancy (ticks) (Tick)
board.cache_hierarchy.l2bus.respLayer1.utilization          0.0                       # Layer utilization (Ratio)
board.cache_hierarchy.l2bus.snoop_filter.totRequests        78444                       # Total number of requests made to the snoop filter. (Count)
board.cache_hierarchy.l2bus.snoop_filter.hitSingleRequests        38709                       # Number of requests hitting in the snoop filter with a single holder of the requested data. (Count)
board.cache_hierarchy.l2bus.snoop_filter.hitMultiRequests            9                       # Number of requests hitting in the snoop filter with multiple (>1) holders of the requested data. (Count)
board.cache_hierarchy.l2bus.snoop_filter.totSnoops            0                       # Total number of snoops made to the snoop filter. (Count)
board.cache_hierarchy.l2bus.snoop_filter.hitSingleSnoops            0                       # Number of snoops hitting in the snoop filter with a single holder of the requested data. (Count)
board.cache_hierarchy.l2bus.snoop_filter.hitMultiSnoops            0                       # Number of snoops hitting in the snoop filter with multiple (>1) holders of the requested data. (Count)
board.cache_hierarchy.l2cache.demandHits::cache_hierarchy.l1dcaches.prefetcher        16695                       # number of demand (read+write) hits (Count)
board.cache_hierarchy.l2cache.demandHits::processor.cores.core.inst          490                       # number of demand (read+write) hits (Count)
board.cache_hierarchy.l2cache.demandHits::processor.cores.core.data        14212                       # number of demand (read+write) hits (Count)
board.cache_hierarchy.l2cache.demandHits::total        31397                       # number of demand (read+write) hits (Count)
board.cache_hierarchy.l2cache.overallHits::cache_hierarchy.l1dcaches.prefetcher        16695                       # number of overall hits (Count)
board.cache_hierarchy.l2cache.overallHits::processor.cores.core.inst          490                       # number of overall hits (Count)
board.cache_hierarchy.l2cache.overallHits::processor.cores.core.data        14212                       # number of overall hits (Count)
board.cache_hierarchy.l2cache.overallHits::total        31397                       # number of overall hits (Count)
board.cache_hierarchy.l2cache.demandMisses::cache_hierarchy.l1dcaches.prefetcher         3234                       # number of demand (read+write) misses (Count)
board.cache_hierarchy.l2cache.demandMisses::processor.cores.core.inst         2154                       # number of demand (read+write) misses (Count)
board.cache_hierarchy.l2cache.demandMisses::processor.cores.core.data         2947                       # number of demand (read+write) misses (Count)
board.cache_hierarchy.l2cache.demandMisses::total         8335                       # number of demand (read+write) misses (Count)
board.cache_hierarchy.l2cache.overallMisses::cache_hierarchy.l1dcaches.prefetcher         3234                       # number of overall misses (Count)
board.cache_hierarchy.l2cache.overallMisses::processor.cores.core.inst         2154                       # number of overall misses (Count)
board.cache_hierarchy.l2cache.overallMisses::processor.cores.core.data         2947                       # number of overall misses (Count)
board.cache_hierarchy.l2cache.overallMisses::total         8335                       # number of overall misses (Count)
board.cache_hierarchy.l2cache.demandMissLatency::cache_hierarchy.l1dcaches.prefetcher    221816841                       # number of demand (read+write) miss ticks (Tick)
board.cache_hierarchy.l2cache.demandMissLatency::processor.cores.core.inst    141180456                       # number of demand (read+write) miss ticks (Tick)
board.cache_hierarchy.l2cache.demandMissLatency::processor.cores.core.data    202742388                       # number of demand (read+write) miss ticks (Tick)
board.cache_hierarchy.l2cache.demandMissLatency::total    565739685                       # number of demand (read+write) miss ticks (Tick)
board.cache_hierarchy.l2cache.overallMissLatency::cache_hierarchy.l1dcaches.prefetcher    221816841                       # number of overall miss ticks (Tick)
board.cache_hierarchy.l2cache.overallMissLatency::processor.cores.core.inst    141180456                       # number of overall miss ticks (Tick)
board.cache_hierarchy.l2cache.overallMissLatency::processor.cores.core.data    202742388                       # number of overall miss ticks (Tick)
board.cache_hierarchy.l2cache.overallMissLatency::total    565739685                       # number of overall miss ticks (Tick)
board.cache_hierarchy.l2cache.demandAccesses::cache_hierarchy.l1dcaches.prefetcher        19929                       # number of demand (read+write) accesses (Count)
board.cache_hierarchy.l2cache.demandAccesses::processor.cores.core.inst         2644                       # number of demand (read+write) accesses (Count)
board.cache_hierarchy.l2cache.demandAccesses::processor.cores.core.data        17159                       # number of demand (read+write) accesses (Count)
board.cache_hierarchy.l2cache.demandAccesses::total        39732                       # number of demand (read+write) accesses (Count)
board.cache_hierarchy.l2cache.overallAccesses::cache_hierarchy.l1dcaches.prefetcher        19929                       # number of overall (read+write) accesses (Count)
board.cache_hierarchy.l2cache.overallAccesses::processor.cores.core.inst         2644                       # number of overall (read+write) accesses (Count)
board.cache_hierarchy.l2cache.overallAccesses::processor.cores.core.data        17159                       # number of overall (read+write) accesses (Count)
board.cache_hierarchy.l2cache.overallAccesses::total        39732                       # number of overall (read+write) accesses (Count)
board.cache_hierarchy.l2cache.demandMissRate::cache_hierarchy.l1dcaches.prefetcher     0.162276                       # miss rate for demand accesses (Ratio)
board.cache_hierarchy.l2cache.demandMissRate::processor.cores.core.inst     0.814675                       # miss rate for demand accesses (Ratio)
board.cache_hierarchy.l2cache.demandMissRate::processor.cores.core.data     0.171747                       # miss rate for demand accesses (Ratio)
board.cache_hierarchy.l2cache.demandMissRate::total     0.209781                       # miss rate for demand accesses (Ratio)
board.cache_hierarchy.l2cache.overallMissRate::cache_hierarchy.l1dcaches.prefetcher     0.162276                       # miss rate for overall accesses (Ratio)
board.cache_hierarchy.l2cache.overallMissRate::processor.cores.core.inst     0.814675                       # miss rate for overall accesses (Ratio)
board.cache_hierarchy.l2cache.overallMissRate::processor.cores.core.data     0.171747                       # miss rate for overall accesses (Ratio)
board.cache_hierarchy.l2cache.overallMissRate::total     0.209781                       # miss rate for overall accesses (Ratio)
board.cache_hierarchy.l2cache.demandAvgMissLatency::cache_hierarchy.l1dcaches.prefetcher 68589.004638                       # average overall miss latency in ticks ((Tick/Count))
board.cache_hierarchy.l2cache.demandAvgMissLatency::processor.cores.core.inst 65543.387187                       # average overall miss latency in ticks ((Tick/Count))
board.cache_hierarchy.l2cache.demandAvgMissLatency::processor.cores.core.data 68796.195453                       # average overall miss latency in ticks ((Tick/Count))
board.cache_hierarchy.l2cache.demandAvgMissLatency::total 67875.187163                       # average overall miss latency in ticks ((Tick/Count))
board.cache_hierarchy.l2cache.overallAvgMissLatency::cache_hierarchy.l1dcaches.prefetcher 68589.004638                       # average overall miss latency ((Tick/Count))
board.cache_hierarchy.l2cache.overallAvgMissLatency::processor.cores.core.inst 65543.387187                       # average overall miss latency ((Tick/Count))
board.cache_hierarchy.l2cache.overallAvgMissLatency::processor.cores.core.data 68796.195453                       # average overall miss latency ((Tick/Count))
board.cache_hierarchy.l2cache.overallAvgMissLatency::total 67875.187163                       # average overall miss latency ((Tick/Count))
board.cache_hierarchy.l2cache.blockedCycles::no_mshrs            0                       # number of cycles access was blocked (Cycle)
board.cache_hierarchy.l2cache.blockedCycles::no_wbuffers            0                       # number of cycles access was blocked (Cycle)
board.cache_hierarchy.l2cache.blockedCycles::no_targets            0                       # number of cycles access was blocked (Cycle)
board.cache_hierarchy.l2cache.blockedCauses::no_mshrs            0                       # number of times access was blocked (Count)
board.cache_hierarchy.l2cache.blockedCauses::no_wbuffers            0                       # number of times access was blocked (Count)
board.cache_hierarchy.l2cache.blockedCauses::no_targets            0                       # number of times access was blocked (Count)
board.cache_hierarchy.l2cache.avgBlocked::no_mshrs          nan                       # average number of cycles each access was blocked ((Cycle/Count))
board.cache_hierarchy.l2cache.avgBlocked::no_wbuffers          nan                       # average number of cycles each access was blocked ((Cycle/Count))
board.cache_hierarchy.l2cache.avgBlocked::no_targets          nan                       # average number of cycles each access was blocked ((Cycle/Count))
board.cache_hierarchy.l2cache.demandMshrHits::cache_hierarchy.l1dcaches.prefetcher         2977                       # number of demand (read+write) MSHR hits (Count)
board.cache_hierarchy.l2cache.demandMshrHits::processor.cores.core.data           58                       # number of demand (read+write) MSHR hits (Count)
board.cache_hierarchy.l2cache.demandMshrHits::total         3035                       # number of demand (read+write) MSHR hits (Count)
board.cache_hierarchy.l2cache.overallMshrHits::cache_hierarchy.l1dcaches.prefetcher         2977                       # number of overall MSHR hits (Count)
board.cache_hierarchy.l2cache.overallMshrHits::processor.cores.core.data           58                       # number of overall MSHR hits (Count)
board.cache_hierarchy.l2cache.overallMshrHits::total         3035                       # number of overall MSHR hits (Count)
board.cache_hierarchy.l2cache.demandMshrMisses::cache_hierarchy.l1dcaches.prefetcher          257                       # number of demand (read+write) MSHR misses (Count)
board.cache_hierarchy.l2cache.demandMshrMisses::processor.cores.core.inst         2154                       # number of demand (read+write) MSHR misses (Count)
board.cache_hierarchy.l2cache.demandMshrMisses::processor.cores.core.data         2889                       # number of demand (read+write) MSHR misses (Count)
board.cache_hierarchy.l2cache.demandMshrMisses::total         5300                       # number of demand (read+write) MSHR misses (Count)
board.cache_hierarchy.l2cache.overallMshrMisses::cache_hierarchy.l1dcaches.prefetcher          257                       # number of overall MSHR misses (Count)
board.cache_hierarchy.l2cache.overallMshrMisses::cache_hierarchy.l2cache.prefetcher         5990                       # number of overall MSHR misses (Count)
board.cache_hierarchy.l2cache.overallMshrMisses::processor.cores.core.inst         2154                       # number of overall MSHR misses (Count)
board.cache_hierarchy.l2cache.overallMshrMisses::processor.cores.core.data         2889                       # number of overall MSHR misses (Count)
board.cache_hierarchy.l2cache.overallMshrMisses::total        11290                       # number of overall MSHR misses (Count)
board.cache_hierarchy.l2cache.demandMshrMissLatency::cache_hierarchy.l1dcaches.prefetcher     38259577                       # number of demand (read+write) MSHR miss ticks (Tick)
board.cache_hierarchy.l2cache.demandMshrMissLatency::processor.cores.core.inst    140702268                       # number of demand (read+write) MSHR miss ticks (Tick)
board.cache_hierarchy.l2cache.demandMshrMissLatency::processor.cores.core.data    200733066                       # number of demand (read+write) MSHR miss ticks (Tick)
board.cache_hierarchy.l2cache.demandMshrMissLatency::total    379694911                       # number of demand (read+write) MSHR miss ticks (Tick)
board.cache_hierarchy.l2cache.overallMshrMissLatency::cache_hierarchy.l1dcaches.prefetcher     38259577                       # number of overall MSHR miss ticks (Tick)
board.cache_hierarchy.l2cache.overallMshrMissLatency::cache_hierarchy.l2cache.prefetcher    594558920                       # number of overall MSHR miss ticks (Tick)
board.cache_hierarchy.l2cache.overallMshrMissLatency::processor.cores.core.inst    140702268                       # number of overall MSHR miss ticks (Tick)
board.cache_hierarchy.l2cache.overallMshrMissLatency::processor.cores.core.data    200733066                       # number of overall MSHR miss ticks (Tick)
board.cache_hierarchy.l2cache.overallMshrMissLatency::total    974253831                       # number of overall MSHR miss ticks (Tick)
board.cache_hierarchy.l2cache.demandMshrMissRate::cache_hierarchy.l1dcaches.prefetcher     0.012896                       # mshr miss ratio for demand accesses (Ratio)
board.cache_hierarchy.l2cache.demandMshrMissRate::processor.cores.core.inst     0.814675                       # mshr miss ratio for demand accesses (Ratio)
board.cache_hierarchy.l2cache.demandMshrMissRate::processor.cores.core.data     0.168366                       # mshr miss ratio for demand accesses (Ratio)
board.cache_hierarchy.l2cache.demandMshrMissRate::total     0.133394                       # mshr miss ratio for demand accesses (Ratio)
board.cache_hierarchy.l2cache.overallMshrMissRate::cache_hierarchy.l1dcaches.prefetcher     0.012896                       # mshr miss ratio for overall accesses (Ratio)
board.cache_hierarchy.l2cache.overallMshrMissRate::cache_hierarchy.l2cache.prefetcher          inf                       # mshr miss ratio for overall accesses (Ratio)
board.cache_hierarchy.l2cache.overallMshrMissRate::processor.cores.core.inst     0.814675                       # mshr miss ratio for overall accesses (Ratio)
board.cache_hierarchy.l2cache.overallMshrMissRate::processor.cores.core.data     0.168366                       # mshr miss ratio for overall accesses (Ratio)
board.cache_hierarchy.l2cache.overallMshrMissRate::total     0.284154                       # mshr miss ratio for overall accesses (Ratio)
board.cache_hierarchy.l2cache.demandAvgMshrMissLatency::cache_hierarchy.l1dcaches.prefetcher 148869.949416                       # average overall mshr miss latency ((Tick/Count))
board.cache_hierarchy.l2cache.demandAvgMshrMissLatency::processor.cores.core.inst 65321.387187                       # average overall mshr miss latency ((Tick/Count))
board.cache_hierarchy.l2cache.demandAvgMshrMissLatency::processor.cores.core.data 69481.850467                       # average overall mshr miss latency ((Tick/Count))
board.cache_hierarchy.l2cache.demandAvgMshrMissLatency::total 71640.549245                       # average overall mshr miss latency ((Tick/Count))
board.cache_hierarchy.l2cache.overallAvgMshrMissLatency::cache_hierarchy.l1dcaches.prefetcher 148869.949416                       # average overall mshr miss latency ((Tick/Count))
board.cache_hierarchy.l2cache.overallAvgMshrMissLatency::cache_hierarchy.l2cache.prefetcher 99258.584307                       # average overall mshr miss latency ((Tick/Count))
board.cache_hierarchy.l2cache.overallAvgMshrMissLatency::processor.cores.core.inst 65321.387187                       # average overall mshr miss latency ((Tick/Count))
board.cache_hierarchy.l2cache.overallAvgMshrMissLatency::processor.cores.core.data 69481.850467                       # average overall mshr miss latency ((Tick/Count))
board.cache_hierarchy.l2cache.overallAvgMshrMissLatency::total 86293.519132                       # average overall mshr miss latency ((Tick/Count))
board.cache_hierarchy.l2cache.replacements            1                       # number of replacements (Count)
board.cache_hierarchy.l2cache.HardPFReq.mshrMisses::cache_hierarchy.l2cache.prefetcher         5990                       # number of HardPFReq MSHR misses (Count)
board.cache_hierarchy.l2cache.HardPFReq.mshrMisses::total         5990                       # number of HardPFReq MSHR misses (Count)
board.cache_hierarchy.l2cache.HardPFReq.mshrMissLatency::cache_hierarchy.l2cache.prefetcher    594558920                       # number of HardPFReq MSHR miss ticks (Tick)
board.cache_hierarchy.l2cache.HardPFReq.mshrMissLatency::total    594558920                       # number of HardPFReq MSHR miss ticks (Tick)
board.cache_hierarchy.l2cache.HardPFReq.mshrMissRate::cache_hierarchy.l2cache.prefetcher          inf                       # mshr miss rate for HardPFReq accesses (Ratio)
board.cache_hierarchy.l2cache.HardPFReq.mshrMissRate::total          inf                       # mshr miss rate for HardPFReq accesses (Ratio)
board.cache_hierarchy.l2cache.HardPFReq.avgMshrMissLatency::cache_hierarchy.l2cache.prefetcher 99258.584307                       # average HardPFReq mshr miss latency ((Tick/Count))
board.cache_hierarchy.l2cache.HardPFReq.avgMshrMissLatency::total 99258.584307                       # average HardPFReq mshr miss latency ((Tick/Count))
board.cache_hierarchy.l2cache.ReadExReq.hits::processor.cores.core.data         7856                       # number of ReadExReq hits (Count)
board.cache_hierarchy.l2cache.ReadExReq.hits::total         7856                       # number of ReadExReq hits (Count)
board.cache_hierarchy.l2cache.ReadExReq.misses::processor.cores.core.data         2531                       # number of ReadExReq misses (Count)
board.cache_hierarchy.l2cache.ReadExReq.misses::total         2531                       # number of ReadExReq misses (Count)
board.cache_hierarchy.l2cache.ReadExReq.missLatency::processor.cores.core.data    170249802                       # number of ReadExReq miss ticks (Tick)
board.cache_hierarchy.l2cache.ReadExReq.missLatency::total    170249802                       # number of ReadExReq miss ticks (Tick)
board.cache_hierarchy.l2cache.ReadExReq.accesses::processor.cores.core.data        10387                       # number of ReadExReq accesses(hits+misses) (Count)
board.cache_hierarchy.l2cache.ReadExReq.accesses::total        10387                       # number of ReadExReq accesses(hits+misses) (Count)
board.cache_hierarchy.l2cache.ReadExReq.missRate::processor.cores.core.data     0.243670                       # miss rate for ReadExReq accesses (Ratio)
board.cache_hierarchy.l2cache.ReadExReq.missRate::total     0.243670                       # miss rate for ReadExReq accesses (Ratio)
board.cache_hierarchy.l2cache.ReadExReq.avgMissLatency::processor.cores.core.data 67265.824575                       # average ReadExReq miss latency ((Tick/Count))
board.cache_hierarchy.l2cache.ReadExReq.avgMissLatency::total 67265.824575                       # average ReadExReq miss latency ((Tick/Count))
board.cache_hierarchy.l2cache.ReadExReq.mshrMisses::processor.cores.core.data         2531                       # number of ReadExReq MSHR misses (Count)
board.cache_hierarchy.l2cache.ReadExReq.mshrMisses::total         2531                       # number of ReadExReq MSHR misses (Count)
board.cache_hierarchy.l2cache.ReadExReq.mshrMissLatency::processor.cores.core.data    169687920                       # number of ReadExReq MSHR miss ticks (Tick)
board.cache_hierarchy.l2cache.ReadExReq.mshrMissLatency::total    169687920                       # number of ReadExReq MSHR miss ticks (Tick)
board.cache_hierarchy.l2cache.ReadExReq.mshrMissRate::processor.cores.core.data     0.243670                       # mshr miss rate for ReadExReq accesses (Ratio)
board.cache_hierarchy.l2cache.ReadExReq.mshrMissRate::total     0.243670                       # mshr miss rate for ReadExReq accesses (Ratio)
board.cache_hierarchy.l2cache.ReadExReq.avgMshrMissLatency::processor.cores.core.data 67043.824575                       # average ReadExReq mshr miss latency ((Tick/Count))
board.cache_hierarchy.l2cache.ReadExReq.avgMshrMissLatency::total 67043.824575                       # average ReadExReq mshr miss latency ((Tick/Count))
board.cache_hierarchy.l2cache.ReadSharedReq.hits::cache_hierarchy.l1dcaches.prefetcher        16695                       # number of ReadSharedReq hits (Count)
board.cache_hierarchy.l2cache.ReadSharedReq.hits::processor.cores.core.inst          490                       # number of ReadSharedReq hits (Count)
board.cache_hierarchy.l2cache.ReadSharedReq.hits::processor.cores.core.data         6356                       # number of ReadSharedReq hits (Count)
board.cache_hierarchy.l2cache.ReadSharedReq.hits::total        23541                       # number of ReadSharedReq hits (Count)
board.cache_hierarchy.l2cache.ReadSharedReq.misses::cache_hierarchy.l1dcaches.prefetcher         3234                       # number of ReadSharedReq misses (Count)
board.cache_hierarchy.l2cache.ReadSharedReq.misses::processor.cores.core.inst         2154                       # number of ReadSharedReq misses (Count)
board.cache_hierarchy.l2cache.ReadSharedReq.misses::processor.cores.core.data          416                       # number of ReadSharedReq misses (Count)
board.cache_hierarchy.l2cache.ReadSharedReq.misses::total         5804                       # number of ReadSharedReq misses (Count)
board.cache_hierarchy.l2cache.ReadSharedReq.missLatency::cache_hierarchy.l1dcaches.prefetcher    221816841                       # number of ReadSharedReq miss ticks (Tick)
board.cache_hierarchy.l2cache.ReadSharedReq.missLatency::processor.cores.core.inst    141180456                       # number of ReadSharedReq miss ticks (Tick)
board.cache_hierarchy.l2cache.ReadSharedReq.missLatency::processor.cores.core.data     32492586                       # number of ReadSharedReq miss ticks (Tick)
board.cache_hierarchy.l2cache.ReadSharedReq.missLatency::total    395489883                       # number of ReadSharedReq miss ticks (Tick)
board.cache_hierarchy.l2cache.ReadSharedReq.accesses::cache_hierarchy.l1dcaches.prefetcher        19929                       # number of ReadSharedReq accesses(hits+misses) (Count)
board.cache_hierarchy.l2cache.ReadSharedReq.accesses::processor.cores.core.inst         2644                       # number of ReadSharedReq accesses(hits+misses) (Count)
board.cache_hierarchy.l2cache.ReadSharedReq.accesses::processor.cores.core.data         6772                       # number of ReadSharedReq accesses(hits+misses) (Count)
board.cache_hierarchy.l2cache.ReadSharedReq.accesses::total        29345                       # number of ReadSharedReq accesses(hits+misses) (Count)
board.cache_hierarchy.l2cache.ReadSharedReq.missRate::cache_hierarchy.l1dcaches.prefetcher     0.162276                       # miss rate for ReadSharedReq accesses (Ratio)
board.cache_hierarchy.l2cache.ReadSharedReq.missRate::processor.cores.core.inst     0.814675                       # miss rate for ReadSharedReq accesses (Ratio)
board.cache_hierarchy.l2cache.ReadSharedReq.missRate::processor.cores.core.data     0.061429                       # miss rate for ReadSharedReq accesses (Ratio)
board.cache_hierarchy.l2cache.ReadSharedReq.missRate::total     0.197785                       # miss rate for ReadSharedReq accesses (Ratio)
board.cache_hierarchy.l2cache.ReadSharedReq.avgMissLatency::cache_hierarchy.l1dcaches.prefetcher 68589.004638                       # average ReadSharedReq miss latency ((Tick/Count))
board.cache_hierarchy.l2cache.ReadSharedReq.avgMissLatency::processor.cores.core.inst 65543.387187                       # average ReadSharedReq miss latency ((Tick/Count))
board.cache_hierarchy.l2cache.ReadSharedReq.avgMissLatency::processor.cores.core.data 78107.177885                       # average ReadSharedReq miss latency ((Tick/Count))
board.cache_hierarchy.l2cache.ReadSharedReq.avgMissLatency::total 68140.917126                       # average ReadSharedReq miss latency ((Tick/Count))
board.cache_hierarchy.l2cache.ReadSharedReq.mshrHits::cache_hierarchy.l1dcaches.prefetcher         2977                       # number of ReadSharedReq MSHR hits (Count)
board.cache_hierarchy.l2cache.ReadSharedReq.mshrHits::processor.cores.core.data           58                       # number of ReadSharedReq MSHR hits (Count)
board.cache_hierarchy.l2cache.ReadSharedReq.mshrHits::total         3035                       # number of ReadSharedReq MSHR hits (Count)
board.cache_hierarchy.l2cache.ReadSharedReq.mshrMisses::cache_hierarchy.l1dcaches.prefetcher          257                       # number of ReadSharedReq MSHR misses (Count)
board.cache_hierarchy.l2cache.ReadSharedReq.mshrMisses::processor.cores.core.inst         2154                       # number of ReadSharedReq MSHR misses (Count)
board.cache_hierarchy.l2cache.ReadSharedReq.mshrMisses::processor.cores.core.data          358                       # number of ReadSharedReq MSHR misses (Count)
board.cache_hierarchy.l2cache.ReadSharedReq.mshrMisses::total         2769                       # number of ReadSharedReq MSHR misses (Count)
board.cache_hierarchy.l2cache.ReadSharedReq.mshrMissLatency::cache_hierarchy.l1dcaches.prefetcher     38259577                       # number of ReadSharedReq MSHR miss ticks (Tick)
board.cache_hierarchy.l2cache.ReadSharedReq.mshrMissLatency::processor.cores.core.inst    140702268                       # number of ReadSharedReq MSHR miss ticks (Tick)
board.cache_hierarchy.l2cache.ReadSharedReq.mshrMissLatency::processor.cores.core.data     31045146                       # number of ReadSharedReq MSHR miss ticks (Tick)
board.cache_hierarchy.l2cache.ReadSharedReq.mshrMissLatency::total    210006991                       # number of ReadSharedReq MSHR miss ticks (Tick)
board.cache_hierarchy.l2cache.ReadSharedReq.mshrMissRate::cache_hierarchy.l1dcaches.prefetcher     0.012896                       # mshr miss rate for ReadSharedReq accesses (Ratio)
board.cache_hierarchy.l2cache.ReadSharedReq.mshrMissRate::processor.cores.core.inst     0.814675                       # mshr miss rate for ReadSharedReq accesses (Ratio)
board.cache_hierarchy.l2cache.ReadSharedReq.mshrMissRate::processor.cores.core.data     0.052865                       # mshr miss rate for ReadSharedReq accesses (Ratio)
board.cache_hierarchy.l2cache.ReadSharedReq.mshrMissRate::total     0.094360                       # mshr miss rate for ReadSharedReq accesses (Ratio)
board.cache_hierarchy.l2cache.ReadSharedReq.avgMshrMissLatency::cache_hierarchy.l1dcaches.prefetcher 148869.949416                       # average ReadSharedReq mshr miss latency ((Tick/Count))
board.cache_hierarchy.l2cache.ReadSharedReq.avgMshrMissLatency::processor.cores.core.inst 65321.387187                       # average ReadSharedReq mshr miss latency ((Tick/Count))
board.cache_hierarchy.l2cache.ReadSharedReq.avgMshrMissLatency::processor.cores.core.data 86718.284916                       # average ReadSharedReq mshr miss latency ((Tick/Count))
board.cache_hierarchy.l2cache.ReadSharedReq.avgMshrMissLatency::total 75842.178043                       # average ReadSharedReq mshr miss latency ((Tick/Count))
board.cache_hierarchy.l2cache.UpgradeReq.hits::processor.cores.core.data            1                       # number of UpgradeReq hits (Count)
board.cache_hierarchy.l2cache.UpgradeReq.hits::total            1                       # number of UpgradeReq hits (Count)
board.cache_hierarchy.l2cache.UpgradeReq.accesses::processor.cores.core.data            1                       # number of UpgradeReq accesses(hits+misses) (Count)
board.cache_hierarchy.l2cache.UpgradeReq.accesses::total            1                       # number of UpgradeReq accesses(hits+misses) (Count)
board.cache_hierarchy.l2cache.WritebackDirty.hits::writebacks        32537                       # number of WritebackDirty hits (Count)
board.cache_hierarchy.l2cache.WritebackDirty.hits::total        32537                       # number of WritebackDirty hits (Count)
board.cache_hierarchy.l2cache.WritebackDirty.accesses::writebacks        32537                       # number of WritebackDirty accesses(hits+misses) (Count)
board.cache_hierarchy.l2cache.WritebackDirty.accesses::total        32537                       # number of WritebackDirty accesses(hits+misses) (Count)
board.cache_hierarchy.l2cache.power_state.pwrStateResidencyTicks::UNDEFINED   2544177720                       # Cumulative time (in ticks) in various power states (Tick)
board.cache_hierarchy.l2cache.prefetcher.demandMshrMisses         5300                       # demands not covered by prefetchs (Count)
board.cache_hierarchy.l2cache.prefetcher.pfIssued        20597                       # number of hwpf issued (Count)
board.cache_hierarchy.l2cache.prefetcher.pfUseful         2892                       # number of useful prefetch (Count)
board.cache_hierarchy.l2cache.prefetcher.pfUsefulButMiss            0                       # number of hit on prefetch but cache block is not in an usable state (Count)
board.cache_hierarchy.l2cache.prefetcher.accuracy     0.140409                       # accuracy of the prefetcher (Count)
board.cache_hierarchy.l2cache.prefetcher.coverage     0.353027                       # coverage brought by this prefetcher (Count)
board.cache_hierarchy.l2cache.prefetcher.pfHitInCache         6417                       # number of prefetches hitting in cache (Count)
board.cache_hierarchy.l2cache.prefetcher.pfHitInMSHR         8190                       # number of prefetches hitting in a MSHR (Count)
board.cache_hierarchy.l2cache.prefetcher.pfHitInWB            0                       # number of prefetches hit in the Write Buffer (Count)
board.cache_hierarchy.l2cache.prefetcher.pfLate        14607                       # number of late prefetches (hitting in cache, MSHR or WB) (Count)
board.cache_hierarchy.l2cache.prefetcher.pfIdentified        22812                       # number of prefetch candidates identified (Count)
[...]
board.processor.cores.core.fetchStats0.numInsts     23609103                       # Number of instructions fetched (thread level) (Count)
board.processor.cores.core.fetchStats0.numOps            0                       # Number of ops (including micro ops) fetched (thread level) (Count)
board.processor.cores.core.fetchStats0.fetchRate     2.060084                       # Number of inst fetches per cycle ((Count/Cycle))
board.processor.cores.core.fetchStats0.numBranches      3426561                       # Number of branches fetched (Count)
board.processor.cores.core.fetchStats0.branchRate     0.298995                       # Number of branch fetches per cycle (Ratio)
board.processor.cores.core.fetchStats0.icacheStallCycles       217781                       # ICache total stall cycles (Cycle)
board.processor.cores.core.fetchStats0.numFetchSuspends            0                       # Number of times Execute suspended instruction fetching (Count)
board.processor.cores.core.ftq.inserts              0                       # The number of FTQ insertions (Count)
board.processor.cores.core.ftq.removals             0                       # The number of FTQ removals. Not including squashes (Count)
board.processor.cores.core.ftq.squashes             0                       # The number of FTQ squashes (Count)
board.processor.cores.core.ftq.locks                0                       # The number of times the FTQ got locked. (Count)
board.processor.cores.core.ftq.occupancy::samples            0                       # Distribution of the FTQ occupation. (Count)
board.processor.cores.core.ftq.occupancy::mean          nan                       # Distribution of the FTQ occupation. (Count)
board.processor.cores.core.ftq.occupancy::stdev          nan                       # Distribution of the FTQ occupation. (Count)
board.processor.cores.core.ftq.occupancy::underflows            0                       # Distribution of the FTQ occupation. (Count)
board.processor.cores.core.ftq.occupancy::0-3            0                       # Distribution of the FTQ occupation. (Count)
board.processor.cores.core.ftq.occupancy::4-7            0                       # Distribution of the FTQ occupation. (Count)
board.processor.cores.core.ftq.occupancy::8            0                       # Distribution of the FTQ occupation. (Count)
board.processor.cores.core.ftq.occupancy::overflows            0                       # Distribution of the FTQ occupation. (Count)
board.processor.cores.core.ftq.occupancy::min_value            0                       # Distribution of the FTQ occupation. (Count)
board.processor.cores.core.ftq.occupancy::max_value            0                       # Distribution of the FTQ occupation. (Count)
board.processor.cores.core.ftq.occupancy::total            0                       # Distribution of the FTQ occupation. (Count)
board.processor.cores.core.iew.dispatchStatus::running      9728225     87.62%     87.62% # Number of cycles dispatch is running (Cycle)
board.processor.cores.core.iew.dispatchStatus::blocked      1068005      9.62%     97.24% # Number of cycles dispatch is blocked (Cycle)
board.processor.cores.core.iew.dispatchStatus::squashing       221991      2.00%     99.24% # Number of cycles dispatch is squashing (Cycle)
board.processor.cores.core.iew.dispatchStatus::unblocking        84502      0.76%    100.00% # Number of cycles dispatch is unblocking (Cycle)
board.processor.cores.core.iew.dispatchedInsts     32511852                       # Number of instructions dispatched to IQ (Count)
board.processor.cores.core.iew.dispSquashedInsts      1189778                       # Number of squashed instructions skipped by dispatch (Count)
board.processor.cores.core.iew.dispLoadInsts      2746918                       # Number of dispatched load instructions (Count)
board.processor.cores.core.iew.dispStoreInsts       978595                       # Number of dispatched store instructions (Count)
board.processor.cores.core.iew.dispNonSpecInsts        83932                       # Number of dispatched non-speculative instructions (Count)
board.processor.cores.core.iew.iqFullEvents        19433                       # Number of times the IQ has become full, causing a stall (Count)
board.processor.cores.core.iew.lsqFullEvents        19198                       # Number of times the LSQ has become full, causing a stall (Count)
board.processor.cores.core.iew.memOrderViolationEvents          224                       # Number of memory order violations (Count)
board.processor.cores.core.iew.predictedTakenIncorrect       131425                       # Number of branches that were predicted taken incorrectly (Count)
board.processor.cores.core.iew.predictedNotTakenIncorrect       109896                       # Number of branches that were predicted not taken incorrectly (Count)
board.processor.cores.core.iew.branchMispredicts       241321                       # Number of branch mispredicts detected at execute (Count)
board.processor.cores.core.iew.instsToCommit     27460942                       # Cumulative count of insts sent to commit (Count)
board.processor.cores.core.iew.writebackCount     27456366                       # Cumulative count of insts written-back (Count)
board.processor.cores.core.iew.producerInst     22117916                       # Number of instructions producing a value (Count)
board.processor.cores.core.iew.consumerInst     34885354                       # Number of instructions consuming a value (Count)
board.processor.cores.core.iew.wbRate        2.395789                       # Insts written-back per cycle ((Count/Cycle))
board.processor.cores.core.iew.wbFanout      0.634017                       # Average fanout of values written-back ((Count/Count))
board.processor.cores.core.interrupts.clk_domain.clock         3552                       # Clock period in ticks (Tick)
board.processor.cores.core.lsq0.forwLoads        90331                       # Number of loads that had data forwarded from stores (Count)
board.processor.cores.core.lsq0.squashedLoads       870520                       # Number of loads squashed (Count)
board.processor.cores.core.lsq0.ignoredResponses         5922                       # Number of memory responses ignored because the instruction is squashed (Count)
board.processor.cores.core.lsq0.memOrderViolation          224                       # Number of memory ordering violations (Count)
board.processor.cores.core.lsq0.squashedStores       342058                       # Number of stores squashed (Count)
board.processor.cores.core.lsq0.rescheduledLoads          357                       # Number of loads that were rescheduled (Count)
board.processor.cores.core.lsq0.blockedByCache            0                       # Number of times an access to memory failed due to the cache being blocked (Count)
board.processor.cores.core.lsq0.loadToUse::samples      1876398                       # Distribution of cycle latency between the first time a load is issued and its completion (Cycle)
board.processor.cores.core.lsq0.loadToUse::mean     2.723522                       # Distribution of cycle latency between the first time a load is issued and its completion (Cycle)
board.processor.cores.core.lsq0.loadToUse::stdev    13.370991                       # Distribution of cycle latency between the first time a load is issued and its completion (Cycle)
board.processor.cores.core.lsq0.loadToUse::0-9      1861159     99.19%     99.19% # Distribution of cycle latency between the first time a load is issued and its completion (Cycle)
board.processor.cores.core.lsq0.loadToUse::10-19        11829      0.63%     99.82% # Distribution of cycle latency between the first time a load is issued and its completion (Cycle)
board.processor.cores.core.lsq0.loadToUse::20-29          535      0.03%     99.85% # Distribution of cycle latency between the first time a load is issued and its completion (Cycle)
board.processor.cores.core.lsq0.loadToUse::30-39          148      0.01%     99.85% # Distribution of cycle latency between the first time a load is issued and its completion (Cycle)
board.processor.cores.core.lsq0.loadToUse::40-49          146      0.01%     99.86% # Distribution of cycle latency between the first time a load is issued and its completion (Cycle)
board.processor.cores.core.lsq0.loadToUse::50-59          135      0.01%     99.87% # Distribution of cycle latency between the first time a load is issued and its completion (Cycle)
board.processor.cores.core.lsq0.loadToUse::60-69          149      0.01%     99.88% # Distribution of cycle latency between the first time a load is issued and its completion (Cycle)
board.processor.cores.core.lsq0.loadToUse::70-79          154      0.01%     99.89% # Distribution of cycle latency between the first time a load is issued and its completion (Cycle)
board.processor.cores.core.lsq0.loadToUse::80-89          127      0.01%     99.89% # Distribution of cycle latency between the first time a load is issued and its completion (Cycle)
board.processor.cores.core.lsq0.loadToUse::90-99          141      0.01%     99.90% # Distribution of cycle latency between the first time a load is issued and its completion (Cycle)
board.processor.cores.core.lsq0.loadToUse::100-109          119      0.01%     99.91% # Distribution of cycle latency between the first time a load is issued and its completion (Cycle)
board.processor.cores.core.lsq0.loadToUse::110-119          104      0.01%     99.91% # Distribution of cycle latency between the first time a load is issued and its completion (Cycle)
board.processor.cores.core.lsq0.loadToUse::120-129          119      0.01%     99.92% # Distribution of cycle latency between the first time a load is issued and its completion (Cycle)
board.processor.cores.core.lsq0.loadToUse::130-139          152      0.01%     99.93% # Distribution of cycle latency between the first time a load is issued and its completion (Cycle)
board.processor.cores.core.lsq0.loadToUse::140-149          109      0.01%     99.93% # Distribution of cycle latency between the first time a load is issued and its completion (Cycle)
board.processor.cores.core.lsq0.loadToUse::150-159          103      0.01%     99.94% # Distribution of cycle latency between the first time a load is issued and its completion (Cycle)
board.processor.cores.core.lsq0.loadToUse::160-169          152      0.01%     99.95% # Distribution of cycle latency between the first time a load is issued and its completion (Cycle)
board.processor.cores.core.lsq0.loadToUse::170-179           70      0.00%     99.95% # Distribution of cycle latency between the first time a load is issued and its completion (Cycle)
board.processor.cores.core.lsq0.loadToUse::180-189           25      0.00%     99.95% # Distribution of cycle latency between the first time a load is issued and its completion (Cycle)
board.processor.cores.core.lsq0.loadToUse::190-199           76      0.00%     99.95% # Distribution of cycle latency between the first time a load is issued and its completion (Cycle)
board.processor.cores.core.lsq0.loadToUse::200-209           22      0.00%     99.96% # Distribution of cycle latency between the first time a load is issued and its completion (Cycle)
board.processor.cores.core.lsq0.loadToUse::210-219            6      0.00%     99.96% # Distribution of cycle latency between the first time a load is issued and its completion (Cycle)
board.processor.cores.core.lsq0.loadToUse::220-229            8      0.00%     99.96% # Distribution of cycle latency between the first time a load is issued and its completion (Cycle)
board.processor.cores.core.lsq0.loadToUse::230-239           11      0.00%     99.96% # Distribution of cycle latency between the first time a load is issued and its completion (Cycle)
board.processor.cores.core.lsq0.loadToUse::240-249           40      0.00%     99.96% # Distribution of cycle latency between the first time a load is issued and its completion (Cycle)
board.processor.cores.core.lsq0.loadToUse::250-259           40      0.00%     99.96% # Distribution of cycle latency between the first time a load is issued and its completion (Cycle)
board.processor.cores.core.lsq0.loadToUse::260-269          264      0.01%     99.98% # Distribution of cycle latency between the first time a load is issued and its completion (Cycle)
board.processor.cores.core.lsq0.loadToUse::270-279           52      0.00%     99.98% # Distribution of cycle latency between the first time a load is issued and its completion (Cycle)
board.processor.cores.core.lsq0.loadToUse::280-289           16      0.00%     99.98% # Distribution of cycle latency between the first time a load is issued and its completion (Cycle)
board.processor.cores.core.lsq0.loadToUse::overflows          387      0.02%    100.00% # Distribution of cycle latency between the first time a load is issued and its completion (Cycle)
board.processor.cores.core.lsq0.loadToUse::min_value            2                       # Distribution of cycle latency between the first time a load is issued and its completion (Cycle)
board.processor.cores.core.lsq0.loadToUse::max_value         2049                       # Distribution of cycle latency between the first time a load is issued and its completion (Cycle)
board.processor.cores.core.lsq0.loadToUse::total      1876398                       # Distribution of cycle latency between the first time a load is issued and its completion (Cycle)
board.processor.cores.core.lsq0.addedLoadsAndStores      3725513                       # Number of loads and stores written to the Load Store Queue (Count)
board.processor.cores.core.lsq0.lqAvgOccupancy         0.29                       # Average LQ Occupancy (UsedSlots/TotalSlots) (Ratio)
board.processor.cores.core.lsq0.sqAvgOccupancy         0.10                       # Average SQ Occupancy (UsedSlots/TotalSlots) (Ratio)
board.processor.cores.core.mmu.dtb.rdAccesses      2394038                       # TLB accesses on read requests (Count)
board.processor.cores.core.mmu.dtb.wrAccesses       812272                       # TLB accesses on write requests (Count)
board.processor.cores.core.mmu.dtb.exAccesses            0                       # TLB accesses on execute (instr) requests (Count)
board.processor.cores.core.mmu.dtb.rdMisses          515                       # TLB misses on read requests (Count)
board.processor.cores.core.mmu.dtb.wrMisses          760                       # TLB misses on write requests (Count)
board.processor.cores.core.mmu.dtb.exMisses            0                       # TLB misses on execute (instr) requests (Count)
board.processor.cores.core.mmu.dtb.walker.power_state.pwrStateResidencyTicks::UNDEFINED   2544177720                       # Cumulative time (in ticks) in various power states (Tick)
board.processor.cores.core.mmu.itb.rdAccesses            0                       # TLB accesses on read requests (Count)
board.processor.cores.core.mmu.itb.wrAccesses            0                       # TLB accesses on write requests (Count)
board.processor.cores.core.mmu.itb.exAccesses      2302812                       # TLB accesses on execute (instr) requests (Count)
board.processor.cores.core.mmu.itb.rdMisses            0                       # TLB misses on read requests (Count)
board.processor.cores.core.mmu.itb.wrMisses            0                       # TLB misses on write requests (Count)
board.processor.cores.core.mmu.itb.exMisses          450                       # TLB misses on execute (instr) requests (Count)
board.processor.cores.core.mmu.itb.walker.power_state.pwrStateResidencyTicks::UNDEFINED   2544177720                       # Cumulative time (in ticks) in various power states (Tick)
board.processor.cores.core.power_state.pwrStateResidencyTicks::ON   2544177720                       # Cumulative time (in ticks) in various power states (Tick)
board.processor.cores.core.rename.status::Running      4779685     43.05%     43.05% # Number of cycles rename is running (Cycle)
board.processor.cores.core.rename.status::Idle      1476521     13.30%     56.35% # Number of cycles rename is idle (Cycle)
board.processor.cores.core.rename.status::Squashing       221991      2.00%     58.35% # Number of cycles rename is squashing (Cycle)
board.processor.cores.core.rename.status::Blocked      1905125     17.16%     75.51% # Number of cycles rename is blocking (Cycle)
board.processor.cores.core.rename.status::Unblocking      2718627     24.49%     99.99% # Number of cycles rename is unblocking (Cycle)
board.processor.cores.core.rename.status::SerializeStall          774      0.01%    100.00% # Number of cycles rename stalled for serializing inst (Cycle)
board.processor.cores.core.rename.renamedInsts     34841441                       # Number of instructions processed by rename (Count)
board.processor.cores.core.rename.ROBFullEvents         5102                       # Number of times rename has blocked due to ROB full (Count)
board.processor.cores.core.rename.IQFullEvents      2432152                       # Number of times rename has blocked due to IQ full (Count)
board.processor.cores.core.rename.LQFullEvents         2685                       # Number of times rename has blocked due to LQ full (Count)
board.processor.cores.core.rename.SQFullEvents        76472                       # Number of times rename has blocked due to SQ full (Count)
board.processor.cores.core.rename.renamedOperands     77980678                       # Number of destination operands rename has renamed (Count)
board.processor.cores.core.rename.lookups    126820068                       # Number of register rename lookups that rename has made (Count)
board.processor.cores.core.rename.intLookups     35944289                       # Number of integer rename lookups (Count)
board.processor.cores.core.rename.fpLookups     10038447                       # Number of floating rename lookups (Count)
board.processor.cores.core.rename.committedMaps     42962520                       # Number of HB maps that are committed (Count)
board.processor.cores.core.rename.undoneMaps     35018149                       # Number of HB maps that are undone due to squashing (Count)
board.processor.cores.core.rename.serializing           33                       # count of serializing insts renamed (Count)
board.processor.cores.core.rename.tempSerializing           32                       # count of temporary serializing insts renamed (Count)
board.processor.cores.core.rename.skidInsts      5647936                       # count of insts added to the skid buffer (Count)
board.processor.cores.core.rename.intReturned     11815064                       # count of registers freed and written back to integer free list (Count)
board.processor.cores.core.rename.fpReturned      4847910                       # count of registers freed and written back to floating point free list (Count)
board.processor.cores.core.rob.reads         42544988                       # The number of ROB reads (Count)
board.processor.cores.core.rob.writes        65241967                       # The number of ROB writes (Count)
board.processor.cores.core.thread_0.numInsts     12030533                       # Number of Instructions committed (Count)
board.processor.cores.core.thread_0.numOps     20712691                       # Number of Ops committed (Count)
board.processor.cores.core.thread_0.numMemRefs      2512935                       # Number of Memory References (Count)
board.processor.cores.core.workload.numSyscalls           81                       # Number of system calls (Count)
board.workload.inst.arm                             0                       # number of arm instructions executed (Count)
board.workload.inst.quiesce                         0                       # number of quiesce instructions executed (Count)

---------- End Simulation Statistics   ----------
