
---------- Begin Simulation Statistics ----------
simSeconds                                   0.001423                       # Number of seconds simulated (Second)
simTicks                                   1422809100                       # Number of ticks simulated (Tick)
finalTick                                  1422809100                       # Number of ticks from beginning of simulation (restored from checkpoints and never reset) (Tick)
simFreq                                  1000000000000                       # The number of ticks per simulated second ((Tick/Second))
hostSeconds                                     29.07                       # Real time elapsed on the host (Second)
hostTickRate                                 48944691                       # The number of ticks simulated per host second (ticks/s) ((Tick/Second))
hostMemory                                    4507788                       # Number of bytes of host memory used (Byte)
simInsts                                      9593046                       # Number of instructions simulated (Count)
simOps                                       10081556                       # Number of ops (including micro ops) simulated (Count)
hostInstRate                                   330000                       # Simulator instruction rate (inst/s) ((Count/Second))
hostOpRate                                     346805                       # Simulator op (including micro ops) rate (op/s) ((Count/Second))
board.cache_hierarchy.l1dcaches.demandHits::processor.cores.core.data      2410782                       # number of demand (read+write) hits (Count)
board.cache_hierarchy.l1dcaches.demandHits::total      2410782                       # number of demand (read+write) hits (Count)
board.cache_hierarchy.l1dcaches.overallHits::processor.cores.core.data      2410782                       # number of overall hits (Count)
board.cache_hierarchy.l1dcaches.overallHits::total      2410782                       # number of overall hits (Count)
board.cache_hierarchy.l1dcaches.demandMisses::processor.cores.core.data        42436                       # number of demand (read+write) misses (Count)
board.cache_hierarchy.l1dcaches.demandMisses::total        42436                       # number of demand (read+write) misses (Count)
board.cache_hierarchy.l1dcaches.overallMisses::processor.cores.core.data        42436                       # number of overall misses (Count)
board.cache_hierarchy.l1dcaches.overallMisses::total        42436                       # number of overall misses (Count)
board.cache_hierarchy.l1dcaches.demandMissLatency::processor.cores.core.data    743854279                       # number of demand (read+write) miss ticks (Tick)
board.cache_hierarchy.l1dcaches.demandMissLatency::total    743854279                       # number of demand (read+write) miss ticks (Tick)
board.cache_hierarchy.l1dcaches.overallMissLatency::processor.cores.core.data    743854279                       # number of overall miss ticks (Tick)
board.cache_hierarchy.l1dcaches.overallMissLatency::total    743854279                       # number of overall miss ticks (Tick)
board.cache_hierarchy.l1dcaches.demandAccesses::processor.cores.core.data      2453218                       # number of demand (read+write) accesses (Count)
board.cache_hierarchy.l1dcaches.demandAccesses::total      2453218                       # number of demand (read+write) accesses (Count)
board.cache_hierarchy.l1dcaches.overallAccesses::processor.cores.core.data      2453218                       # number of overall (read+write) accesses (Count)
board.cache_hierarchy.l1dcaches.overallAccesses::total      2453218                       # number of overall (read+write) accesses (Count)
board.cache_hierarchy.l1dcaches.demandMissRate::processor.cores.core.data     0.017298                       # miss rate for demand accesses (Ratio)
board.cache_hierarchy.l1dcaches.demandMissRate::total     0.017298                       # miss rate for demand accesses (Ratio)
board.cache_hierarchy.l1dcaches.overallMissRate::processor.cores.core.data     0.017298                       # miss rate for overall accesses (Ratio)
board.cache_hierarchy.l1dcaches.overallMissRate::total     0.017298                       # miss rate for overall accesses (Ratio)
board.cache_hierarchy.l1dcaches.demandAvgMissLatency::processor.cores.core.data 17528.850009                       # average overall miss latency in ticks ((Tick/Count))
board.cache_hierarchy.l1dcaches.demandAvgMissLatency::total 17528.850009                       # average overall miss latency in ticks ((Tick/Count))
board.cache_hierarchy.l1dcaches.overallAvgMissLatency::processor.cores.core.data 17528.850009                       # average overall miss latency ((Tick/Count))
board.cache_hierarchy.l1dcaches.overallAvgMissLatency::total 17528.850009                       # average overall miss latency ((Tick/Count))
board.cache_hierarchy.l1dcaches.blockedCycles::no_mshrs          460                       # number of cycles access was blocked (Cycle)
board.cache_hierarchy.l1dcaches.blockedCycles::no_wbuffers           46                       # number of cycles access was blocked (Cycle)
board.cache_hierarchy.l1dcaches.blockedCycles::no_targets          205                       # number of cycles access was blocked (Cycle)
board.cache_hierarchy.l1dcaches.blockedCauses::no_mshrs           12                       # number of times access was blocked (Count)
board.cache_hierarchy.l1dcaches.blockedCauses::no_wbuffers          642                       # number of times access was blocked (Count)
board.cache_hierarchy.l1dcaches.blockedCauses::no_targets            1                       # number of times access was blocked (Count)
board.cache_hierarchy.l1dcaches.avgBlocked::no_mshrs    38.333333                       # average number of cycles each access was blocked ((Cycle/Count))
board.cache_hierarchy.l1dcaches.avgBlocked::no_wbuffers     0.071651                       # average number of cycles each access was blocked ((Cycle/Count))
board.cache_hierarchy.l1dcaches.avgBlocked::no_targets          205                       # average number of cycles each access was blocked ((Cycle/Count))
board.cache_hierarchy.l1dcaches.writebacks::writebacks        27884                       # number of writebacks (Count)
board.cache_hierarchy.l1dcaches.writebacks::total        27884                       # number of writebacks (Count)
board.cache_hierarchy.l1dcaches.demandMshrHits::processor.cores.core.data        26979                       # number of demand (read+write) MSHR hits (Count)
board.cache_hierarchy.l1dcaches.demandMshrHits::total        26979                       # number of demand (read+write) MSHR hits (Count)
board.cache_hierarchy.l1dcaches.overallMshrHits::processor.cores.core.data        26979                       # number of overall MSHR hits (Count)
board.cache_hierarchy.l1dcaches.overallMshrHits::total        26979                       # number of overall MSHR hits (Count)
board.cache_hierarchy.l1dcaches.demandMshrMisses::processor.cores.core.data        15457                       # number of demand (read+write) MSHR misses (Count)
board.cache_hierarchy.l1dcaches.demandMshrMisses::total        15457                       # number of demand (read+write) MSHR misses (Count)
board.cache_hierarchy.l1dcaches.overallMshrMisses::cache_hierarchy.l1dcaches.prefetcher        16047                       # number of overall MSHR misses (Count)
board.cache_hierarchy.l1dcaches.overallMshrMisses::processor.cores.core.data        15457                       # number of overall MSHR misses (Count)
board.cache_hierarchy.l1dcaches.overallMshrMisses::total        31504                       # number of overall MSHR misses (Count)
board.cache_hierarchy.l1dcaches.demandMshrMissLatency::processor.cores.core.data    251636767                       # number of demand (read+write) MSHR miss ticks (Tick)
board.cache_hierarchy.l1dcaches.demandMshrMissLatency::total    251636767                       # number of demand (read+write) MSHR miss ticks (Tick)
board.cache_hierarchy.l1dcaches.overallMshrMissLatency::cache_hierarchy.l1dcaches.prefetcher    292610572                       # number of overall MSHR miss ticks (Tick)
board.cache_hierarchy.l1dcaches.overallMshrMissLatency::processor.cores.core.data    251636767                       # number of overall MSHR miss ticks (Tick)
board.cache_hierarchy.l1dcaches.overallMshrMissLatency::total    544247339                       # number of overall MSHR miss ticks (Tick)
board.cache_hierarchy.l1dcaches.demandMshrMissRate::processor.cores.core.data     0.006301                       # mshr miss ratio for demand accesses (Ratio)
board.cache_hierarchy.l1dcaches.demandMshrMissRate::total     0.006301                       # mshr miss ratio for demand accesses (Ratio)
board.cache_hierarchy.l1dcaches.overallMshrMissRate::cache_hierarchy.l1dcaches.prefetcher          inf                       # mshr miss ratio for overall accesses (Ratio)
board.cache_hierarchy.l1dcaches.overallMshrMissRate::processor.cores.core.data     0.006301                       # mshr miss ratio for overall accesses (Ratio)
board.cache_hierarchy.l1dcaches.overallMshrMissRate::total     0.012842                       # mshr miss ratio for overall accesses (Ratio)
board.cache_hierarchy.l1dcaches.demandAvgMshrMissLatency::processor.cores.core.data 16279.793427                       # average overall mshr miss latency ((Tick/Count))
board.cache_hierarchy.l1dcaches.demandAvgMshrMissLatency::total 16279.793427                       # average overall mshr miss latency ((Tick/Count))
board.cache_hierarchy.l1dcaches.overallAvgMshrMissLatency::cache_hierarchy.l1dcaches.prefetcher 18234.596622                       # average overall mshr miss latency ((Tick/Count))
board.cache_hierarchy.l1dcaches.overallAvgMshrMissLatency::processor.cores.core.data 16279.793427                       # average overall mshr miss latency ((Tick/Count))
board.cache_hierarchy.l1dcaches.overallAvgMshrMissLatency::total 17275.499587                       # average overall mshr miss latency ((Tick/Count))
board.cache_hierarchy.l1dcaches.replacements        31698                       # number of replacements (Count)
board.cache_hierarchy.l1dcaches.HardPFReq.mshrMisses::cache_hierarchy.l1dcaches.prefetcher        16047                       # number of HardPFReq MSHR misses (Count)
board.cache_hierarchy.l1dcaches.HardPFReq.mshrMisses::total        16047                       # number of HardPFReq MSHR misses (Count)
board.cache_hierarchy.l1dcaches.HardPFReq.mshrMissLatency::cache_hierarchy.l1dcaches.prefetcher    292610572                       # number of HardPFReq MSHR miss ticks (Tick)
board.cache_hierarchy.l1dcaches.HardPFReq.mshrMissLatency::total    292610572                       # number of HardPFReq MSHR miss ticks (Tick)
board.cache_hierarchy.l1dcaches.HardPFReq.mshrMissRate::cache_hierarchy.l1dcaches.prefetcher          inf                       # mshr miss rate for HardPFReq accesses (Ratio)
board.cache_hierarchy.l1dcaches.HardPFReq.mshrMissRate::total          inf                       # mshr miss rate for HardPFReq accesses (Ratio)
board.cache_hierarchy.l1dcaches.HardPFReq.avgMshrMissLatency::cache_hierarchy.l1dcaches.prefetcher 18234.596622                       # average HardPFReq mshr miss latency ((Tick/Count))
board.cache_hierarchy.l1dcaches.HardPFReq.avgMshrMissLatency::total 18234.596622                       # average HardPFReq mshr miss latency ((Tick/Count))
board.cache_hierarchy.l1dcaches.LoadLockedReq.hits::processor.cores.core.data            5                       # number of LoadLockedReq hits (Count)
board.cache_hierarchy.l1dcaches.LoadLockedReq.hits::total            5                       # number of LoadLockedReq hits (Count)
board.cache_hierarchy.l1dcaches.LoadLockedReq.misses::processor.cores.core.data            1                       # number of LoadLockedReq misses (Count)
board.cache_hierarchy.l1dcaches.LoadLockedReq.misses::total            1                       # number of LoadLockedReq misses (Count)
board.cache_hierarchy.l1dcaches.LoadLockedReq.missLatency::processor.cores.core.data        58386                       # number of LoadLockedReq miss ticks (Tick)
board.cache_hierarchy.l1dcaches.LoadLockedReq.missLatency::total        58386                       # number of LoadLockedReq miss ticks (Tick)
board.cache_hierarchy.l1dcaches.LoadLockedReq.accesses::processor.cores.core.data            6                       # number of LoadLockedReq accesses(hits+misses) (Count)
board.cache_hierarchy.l1dcaches.LoadLockedReq.accesses::total            6                       # number of LoadLockedReq accesses(hits+misses) (Count)
board.cache_hierarchy.l1dcaches.LoadLockedReq.missRate::processor.cores.core.data     0.166667                       # miss rate for LoadLockedReq accesses (Ratio)
board.cache_hierarchy.l1dcaches.LoadLockedReq.missRate::total     0.166667                       # miss rate for LoadLockedReq accesses (Ratio)
board.cache_hierarchy.l1dcaches.LoadLockedReq.avgMissLatency::processor.cores.core.data        58386                       # average LoadLockedReq miss latency ((Tick/Count))
board.cache_hierarchy.l1dcaches.LoadLockedReq.avgMissLatency::total        58386                       # average LoadLockedReq miss latency ((Tick/Count))
board.cache_hierarchy.l1dcaches.LoadLockedReq.mshrMisses::processor.cores.core.data            1                       # number of LoadLockedReq MSHR misses (Count)
board.cache_hierarchy.l1dcaches.LoadLockedReq.mshrMisses::total            1                       # number of LoadLockedReq MSHR misses (Count)
board.cache_hierarchy.l1dcaches.LoadLockedReq.mshrMissLatency::processor.cores.core.data        58164                       # number of LoadLockedReq MSHR miss ticks (Tick)
board.cache_hierarchy.l1dcaches.LoadLockedReq.mshrMissLatency::total        58164                       # number of LoadLockedReq MSHR miss ticks (Tick)
board.cache_hierarchy.l1dcaches.LoadLockedReq.mshrMissRate::processor.cores.core.data     0.166667                       # mshr miss rate for LoadLockedReq accesses (Ratio)
board.cache_hierarchy.l1dcaches.LoadLockedReq.mshrMissRate::total     0.166667                       # mshr miss rate for LoadLockedReq accesses (Ratio)
board.cache_hierarchy.l1dcaches.LoadLockedReq.avgMshrMissLatency::processor.cores.core.data        58164                       # average LoadLockedReq mshr miss latency ((Tick/Count))
board.cache_hierarchy.l1dcaches.LoadLockedReq.avgMshrMissLatency::total        58164                       # average LoadLockedReq mshr miss latency ((Tick/Count))
board.cache_hierarchy.l1dcaches.ReadReq.hits::processor.cores.core.data      1896146                       # number of ReadReq hits (Count)
board.cache_hierarchy.l1dcaches.ReadReq.hits::total      1896146                       # number of ReadReq hits (Count)
board.cache_hierarchy.l1dcaches.ReadReq.misses::processor.cores.core.data        23566                       # number of ReadReq misses (Count)
board.cache_hierarchy.l1dcaches.ReadReq.misses::total        23566                       # number of ReadReq misses (Count)
board.cache_hierarchy.l1dcaches.ReadReq.missLatency::processor.cores.core.data    282219276                       # number of ReadReq miss ticks (Tick)
board.cache_hierarchy.l1dcaches.ReadReq.missLatency::total    282219276                       # number of ReadReq miss ticks (Tick)
board.cache_hierarchy.l1dcaches.ReadReq.accesses::processor.cores.core.data      1919712                       # number of ReadReq accesses(hits+misses) (Count)
board.cache_hierarchy.l1dcaches.ReadReq.accesses::total      1919712                       # number of ReadReq accesses(hits+misses) (Count)
board.cache_hierarchy.l1dcaches.ReadReq.missRate::processor.cores.core.data     0.012276                       # miss rate for ReadReq accesses (Ratio)
board.cache_hierarchy.l1dcaches.ReadReq.missRate::total     0.012276                       # miss rate for ReadReq accesses (Ratio)
board.cache_hierarchy.l1dcaches.ReadReq.avgMissLatency::processor.cores.core.data 11975.697021                       # average ReadReq miss latency ((Tick/Count))
board.cache_hierarchy.l1dcaches.ReadReq.avgMissLatency::total 11975.697021                       # average ReadReq miss latency ((Tick/Count))
board.cache_hierarchy.l1dcaches.ReadReq.mshrHits::processor.cores.core.data        17130                       # number of ReadReq MSHR hits (Count)
board.cache_hierarchy.l1dcaches.ReadReq.mshrHits::total        17130                       # number of ReadReq MSHR hits (Count)
board.cache_hierarchy.l1dcaches.ReadReq.mshrMisses::processor.cores.core.data         6436                       # number of ReadReq MSHR misses (Count)
board.cache_hierarchy.l1dcaches.ReadReq.mshrMisses::total         6436                       # number of ReadReq MSHR misses (Count)
board.cache_hierarchy.l1dcaches.ReadReq.mshrMissLatency::processor.cores.core.data     57198078                       # number of ReadReq MSHR miss ticks (Tick)
board.cache_hierarchy.l1dcaches.ReadReq.mshrMissLatency::total     57198078                       # number of ReadReq MSHR miss ticks (Tick)
board.cache_hierarchy.l1dcaches.ReadReq.mshrMissRate::processor.cores.core.data     0.003353                       # mshr miss rate for ReadReq accesses (Ratio)
board.cache_hierarchy.l1dcaches.ReadReq.mshrMissRate::total     0.003353                       # mshr miss rate for ReadReq accesses (Ratio)
board.cache_hierarchy.l1dcaches.ReadReq.avgMshrMissLatency::processor.cores.core.data  8887.209136                       # average ReadReq mshr miss latency ((Tick/Count))
board.cache_hierarchy.l1dcaches.ReadReq.avgMshrMissLatency::total  8887.209136                       # average ReadReq mshr miss latency ((Tick/Count))
board.cache_hierarchy.l1dcaches.StoreCondReq.hits::processor.cores.core.data            5                       # number of StoreCondReq hits (Count)
board.cache_hierarchy.l1dcaches.StoreCondReq.hits::total            5                       # number of StoreCondReq hits (Count)
board.cache_hierarchy.l1dcaches.StoreCondReq.accesses::processor.cores.core.data            5                       # number of StoreCondReq accesses(hits+misses) (Count)
board.cache_hierarchy.l1dcaches.StoreCondReq.accesses::total            5                       # number of StoreCondReq accesses(hits+misses) (Count)
board.cache_hierarchy.l1dcaches.SwapReq.hits::processor.cores.core.data        65837                       # number of SwapReq hits (Count)
board.cache_hierarchy.l1dcaches.SwapReq.hits::total        65837                       # number of SwapReq hits (Count)
board.cache_hierarchy.l1dcaches.SwapReq.misses::processor.cores.core.data          706                       # number of SwapReq misses (Count)
board.cache_hierarchy.l1dcaches.SwapReq.misses::total          706                       # number of SwapReq misses (Count)
board.cache_hierarchy.l1dcaches.SwapReq.missLatency::processor.cores.core.data      2204904                       # number of SwapReq miss ticks (Tick)
board.cache_hierarchy.l1dcaches.SwapReq.missLatency::total      2204904                       # number of SwapReq miss ticks (Tick)
board.cache_hierarchy.l1dcaches.SwapReq.accesses::processor.cores.core.data        66543                       # number of SwapReq accesses(hits+misses) (Count)
board.cache_hierarchy.l1dcaches.SwapReq.accesses::total        66543                       # number of SwapReq accesses(hits+misses) (Count)
board.cache_hierarchy.l1dcaches.SwapReq.missRate::processor.cores.core.data     0.010610                       # miss rate for SwapReq accesses (Ratio)
board.cache_hierarchy.l1dcaches.SwapReq.missRate::total     0.010610                       # miss rate for SwapReq accesses (Ratio)
board.cache_hierarchy.l1dcaches.SwapReq.avgMissLatency::processor.cores.core.data  3123.093484                       # average SwapReq miss latency ((Tick/Count))
board.cache_hierarchy.l1dcaches.SwapReq.avgMissLatency::total  3123.093484                       # average SwapReq miss latency ((Tick/Count))
board.cache_hierarchy.l1dcaches.SwapReq.mshrMisses::processor.cores.core.data          706                       # number of SwapReq MSHR misses (Count)
board.cache_hierarchy.l1dcaches.SwapReq.mshrMisses::total          706                       # number of SwapReq MSHR misses (Count)
board.cache_hierarchy.l1dcaches.SwapReq.mshrMissLatency::processor.cores.core.data      2048172                       # number of SwapReq MSHR miss ticks (Tick)
board.cache_hierarchy.l1dcaches.SwapReq.mshrMissLatency::total      2048172                       # number of SwapReq MSHR miss ticks (Tick)
board.cache_hierarchy.l1dcaches.SwapReq.mshrMissRate::processor.cores.core.data     0.010610                       # mshr miss rate for SwapReq accesses (Ratio)
board.cache_hierarchy.l1dcaches.SwapReq.mshrMissRate::total     0.010610                       # mshr miss rate for SwapReq accesses (Ratio)
board.cache_hierarchy.l1dcaches.SwapReq.avgMshrMissLatency::processor.cores.core.data  2901.093484                       # average SwapReq mshr miss latency ((Tick/Count))
board.cache_hierarchy.l1dcaches.SwapReq.avgMshrMissLatency::total  2901.093484                       # average SwapReq mshr miss latency ((Tick/Count))
board.cache_hierarchy.l1dcaches.WriteLineReq.hits::processor.cores.core.data           17                       # number of WriteLineReq hits (Count)
board.cache_hierarchy.l1dcaches.WriteLineReq.hits::total           17                       # number of WriteLineReq hits (Count)
board.cache_hierarchy.l1dcaches.WriteLineReq.misses::processor.cores.core.data           71                       # number of WriteLineReq misses (Count)
board.cache_hierarchy.l1dcaches.WriteLineReq.misses::total           71                       # number of WriteLineReq misses (Count)
board.cache_hierarchy.l1dcaches.WriteLineReq.missLatency::processor.cores.core.data      4188241                       # number of WriteLineReq miss ticks (Tick)
board.cache_hierarchy.l1dcaches.WriteLineReq.missLatency::total      4188241                       # number of WriteLineReq miss ticks (Tick)
board.cache_hierarchy.l1dcaches.WriteLineReq.accesses::processor.cores.core.data           88                       # number of WriteLineReq accesses(hits+misses) (Count)
board.cache_hierarchy.l1dcaches.WriteLineReq.accesses::total           88                       # number of WriteLineReq accesses(hits+misses) (Count)
board.cache_hierarchy.l1dcaches.WriteLineReq.missRate::processor.cores.core.data     0.806818                       # miss rate for WriteLineReq accesses (Ratio)
board.cache_hierarchy.l1dcaches.WriteLineReq.missRate::total     0.806818                       # miss rate for WriteLineReq accesses (Ratio)
board.cache_hierarchy.l1dcaches.WriteLineReq.avgMissLatency::processor.cores.core.data 58989.309859                       # average WriteLineReq miss latency ((Tick/Count))
board.cache_hierarchy.l1dcaches.WriteLineReq.avgMissLatency::total 58989.309859                       # average WriteLineReq miss latency ((Tick/Count))
board.cache_hierarchy.l1dcaches.WriteLineReq.mshrHits::processor.cores.core.data           38                       # number of WriteLineReq MSHR hits (Count)
board.cache_hierarchy.l1dcaches.WriteLineReq.mshrHits::total           38                       # number of WriteLineReq MSHR hits (Count)
board.cache_hierarchy.l1dcaches.WriteLineReq.mshrMisses::processor.cores.core.data           33                       # number of WriteLineReq MSHR misses (Count)
board.cache_hierarchy.l1dcaches.WriteLineReq.mshrMisses::total           33                       # number of WriteLineReq MSHR misses (Count)
board.cache_hierarchy.l1dcaches.WriteLineReq.mshrMissLatency::processor.cores.core.data       699733                       # number of WriteLineReq MSHR miss ticks (Tick)
board.cache_hierarchy.l1dcaches.WriteLineReq.mshrMissLatency::total       699733                       # number of WriteLineReq MSHR miss ticks (Tick)
board.cache_hierarchy.l1dcaches.WriteLineReq.mshrMissRate::processor.cores.core.data     0.375000                       # mshr miss rate for WriteLineReq accesses (Ratio)
board.cache_hierarchy.l1dcaches.WriteLineReq.mshrMissRate::total     0.375000                       # mshr miss rate for WriteLineReq accesses (Ratio)
board.cache_hierarchy.l1dcaches.WriteLineReq.avgMshrMissLatency::processor.cores.core.data 21204.030303                       # average WriteLineReq mshr miss latency ((Tick/Count))
board.cache_hierarchy.l1dcaches.WriteLineReq.avgMshrMissLatency::total 21204.030303                       # average WriteLineReq mshr miss latency ((Tick/Count))
board.cache_hierarchy.l1dcaches.WriteReq.hits::processor.cores.core.data       514619                       # number of WriteReq hits (Count)
board.cache_hierarchy.l1dcaches.WriteReq.hits::total       514619                       # number of WriteReq hits (Count)
board.cache_hierarchy.l1dcaches.WriteReq.misses::processor.cores.core.data        18799                       # number of WriteReq misses (Count)
board.cache_hierarchy.l1dcaches.WriteReq.misses::total        18799                       # number of WriteReq misses (Count)
board.cache_hierarchy.l1dcaches.WriteReq.missLatency::processor.cores.core.data    457446762                       # number of WriteReq miss ticks (Tick)
board.cache_hierarchy.l1dcaches.WriteReq.missLatency::total    457446762                       # number of WriteReq miss ticks (Tick)
board.cache_hierarchy.l1dcaches.WriteReq.accesses::processor.cores.core.data       533418                       # number of WriteReq accesses(hits+misses) (Count)
board.cache_hierarchy.l1dcaches.WriteReq.accesses::total       533418                       # number of WriteReq accesses(hits+misses) (Count)
board.cache_hierarchy.l1dcaches.WriteReq.missRate::processor.cores.core.data     0.035243                       # miss rate for WriteReq accesses (Ratio)
board.cache_hierarchy.l1dcaches.WriteReq.missRate::total     0.035243                       # miss rate for WriteReq accesses (Ratio)
board.cache_hierarchy.l1dcaches.WriteReq.avgMissLatency::processor.cores.core.data 24333.568913                       # average WriteReq miss latency ((Tick/Count))
board.cache_hierarchy.l1dcaches.WriteReq.avgMissLatency::total 24333.568913                       # average WriteReq miss latency ((Tick/Count))
board.cache_hierarchy.l1dcaches.WriteReq.mshrHits::processor.cores.core.data         9811                       # number of WriteReq MSHR hits (Count)
board.cache_hierarchy.l1dcaches.WriteReq.mshrHits::total         9811                       # number of WriteReq MSHR hits (Count)
board.cache_hierarchy.l1dcaches.WriteReq.mshrMisses::processor.cores.core.data         8988                       # number of WriteReq MSHR misses (Count)
board.cache_hierarchy.l1dcaches.WriteReq.mshrMisses::total         8988                       # number of WriteReq MSHR misses (Count)
board.cache_hierarchy.l1dcaches.WriteReq.mshrMissLatency::processor.cores.core.data    193738956                       # number of WriteReq MSHR miss ticks (Tick)
board.cache_hierarchy.l1dcaches.WriteReq.mshrMissLatency::total    193738956                       # number of WriteReq MSHR miss ticks (Tick)
board.cache_hierarchy.l1dcaches.WriteReq.mshrMissRate::processor.cores.core.data     0.016850                       # mshr miss rate for WriteReq accesses (Ratio)
board.cache_hierarchy.l1dcaches.WriteReq.mshrMissRate::total     0.016850                       # mshr miss rate for WriteReq accesses (Ratio)
board.cache_hierarchy.l1dcaches.WriteReq.avgMshrMissLatency::processor.cores.core.data 21555.291055                       # average WriteReq mshr miss latency ((Tick/Count))
board.cache_hierarchy.l1dcaches.WriteReq.avgMshrMissLatency::total 21555.291055                       # average WriteReq mshr miss latency ((Tick/Count))
board.cache_hierarchy.l1dcaches.power_state.pwrStateResidencyTicks::UNDEFINED   1422809100                       # Cumulative time (in ticks) in various power states (Tick)
board.cache_hierarchy.l1dcaches.prefetcher.demandMshrMisses        15457                       # demands not covered by prefetchs (Count)
board.cache_hierarchy.l1dcaches.prefetcher.pfIssued        54487                       # number of hwpf issued (Count)
board.cache_hierarchy.l1dcaches.prefetcher.pfUnused          874                       # number of HardPF blocks evicted w/o reference (Count)
board.cache_hierarchy.l1dcaches.prefetcher.pfUseful        13011                       # number of useful prefetch (Count)
board.cache_hierarchy.l1dcaches.prefetcher.pfUsefulButMiss            0                       # number of hit on prefetch but cache block is not in an usable state (Count)
board.cache_hierarchy.l1dcaches.prefetcher.accuracy     0.238791                       # accuracy of the prefetcher (Count)
board.cache_hierarchy.l1dcaches.prefetcher.coverage     0.457039                       # coverage brought by this prefetcher (Count)
board.cache_hierarchy.l1dcaches.prefetcher.pfHitInCache        31007                       # number of prefetches hitting in cache (Count)
board.cache_hierarchy.l1dcaches.prefetcher.pfHitInMSHR         7433                       # number of prefetches hitting in a MSHR (Count)
board.cache_hierarchy.l1dcaches.prefetcher.pfHitInWB            0                       # number of prefetches hit in the Write Buffer (Count)
board.cache_hierarchy.l1dcaches.prefetcher.pfLate        38440                       # number of late prefetches (hitting in cache, MSHR or WB) (Count)
board.cache_hierarchy.l1dcaches.prefetcher.pfIdentified        66999                       # number of prefetch candidates identified (Count)
board.cache_hierarchy.l1dcaches.prefetcher.pfBufferHit         7167                       # number of redundant prefetches already in prefetch queue (Count)
board.cache_hierarchy.l1dcaches.prefetcher.pfInCache            0                       # number of redundant prefetches already in cache/mshr dropped (Count)
board.cache_hierarchy.l1dcaches.prefetcher.pfRemovedDemand         2551                       # number of prefetches dropped due to a demand for the same address (Count)
board.cache_hierarchy.l1dcaches.prefetcher.pfRemovedFull            0                       # number of prefetches dropped due to prefetch queue size (Count)
board.cache_hierarchy.l1dcaches.prefetcher.pfSpanPage         2881                       # number of prefetches that crossed the page (Count)
board.cache_hierarchy.l1dcaches.prefetcher.pfUsefulSpanPage         1874                       # number of prefetches that is useful and crossed the page (Count)
board.cache_hierarchy.l1dcaches.prefetcher.power_state.pwrStateResidencyTicks::UNDEFINED   1422809100                       # Cumulative time (in ticks) in various power states (Tick)
board.cache_hierarchy.l1dcaches.tags.tagsInUse   506.464528                       # Average ticks per tags in use ((Tick/Count))
board.cache_hierarchy.l1dcaches.tags.totalRefs      2508839                       # Total number of references to valid blocks. (Count)
board.cache_hierarchy.l1dcaches.tags.sampledRefs        32210                       # Sample count of references to valid blocks. (Count)
board.cache_hierarchy.l1dcaches.tags.avgRefs    77.890065                       # Average number of references to valid blocks. ((Count/Count))
board.cache_hierarchy.l1dcaches.tags.warmupTick       129870                       # The tick when the warmup percentage was hit. (Tick)
board.cache_hierarchy.l1dcaches.tags.occupancies::cache_hierarchy.l1dcaches.prefetcher   278.959640                       # Average occupied blocks per tick, per requestor ((Count/Tick))
board.cache_hierarchy.l1dcaches.tags.occupancies::processor.cores.core.data   227.504888                       # Average occupied blocks per tick, per requestor ((Count/Tick))
board.cache_hierarchy.l1dcaches.tags.avgOccs::cache_hierarchy.l1dcaches.prefetcher     0.544843                       # Average percentage of cache occupancy ((Ratio/Tick))
board.cache_hierarchy.l1dcaches.tags.avgOccs::processor.cores.core.data     0.444345                       # Average percentage of cache occupancy ((Ratio/Tick))
board.cache_hierarchy.l1dcaches.tags.avgOccs::total     0.989189                       # Average percentage of cache occupancy ((Ratio/Tick))
board.cache_hierarchy.l1dcaches.tags.occupanciesTaskId::1022          168                       # Occupied blocks per task id (Count)
board.cache_hierarchy.l1dcaches.tags.occupanciesTaskId::1024          344                       # Occupied blocks per task id (Count)
board.cache_hierarchy.l1dcaches.tags.ageTaskId_1022::0           24                       # Occupied blocks per task id, per block age (Count)
board.cache_hierarchy.l1dcaches.tags.ageTaskId_1022::1          144                       # Occupied blocks per task id, per block age (Count)
board.cache_hierarchy.l1dcaches.tags.ageTaskId_1024::0          230                       # Occupied blocks per task id, per block age (Count)
board.cache_hierarchy.l1dcaches.tags.ageTaskId_1024::1          114                       # Occupied blocks per task id, per block age (Count)
board.cache_hierarchy.l1dcaches.tags.ratioOccsTaskId::1022     0.328125                       # Ratio of occupied blocks and all blocks, per task id (Ratio)
board.cache_hierarchy.l1dcaches.tags.ratioOccsTaskId::1024     0.671875                       # Ratio of occupied blocks and all blocks, per task id (Ratio)
board.cache_hierarchy.l1dcaches.tags.tagAccesses     20190386                       # Number of tag accesses (Count)
board.cache_hierarchy.l1dcaches.tags.dataAccesses     20190386                       # Number of data accesses (Count)
board.cache_hierarchy.l1dcaches.tags.power_state.pwrStateResidencyTicks::UNDEFINED   1422809100                       # Cumulative time (in ticks) in various power states (Tick)
board.cache_hierarchy.l1icaches.demandHits::processor.cores.core.inst      2132387                       # number of demand (read+write) hits (Count)
board.cache_hierarchy.l1icaches.demandHits::total      2132387                       # number of demand (read+write) hits (Count)
board.cache_hierarchy.l1icaches.overallHits::processor.cores.core.inst      2132387                       # number of overall hits (Count)
board.cache_hierarchy.l1icaches.overallHits::total      2132387                       # number of overall hits (Count)
board.cache_hierarchy.l1icaches.demandMisses::processor.cores.core.inst         3084                       # number of demand (read+write) misses (Count)
board.cache_hierarchy.l1icaches.demandMisses::total         3084                       # number of demand (read+write) misses (Count)
board.cache_hierarchy.l1icaches.overallMisses::processor.cores.core.inst         3084                       # number of overall misses (Count)
board.cache_hierarchy.l1icaches.overallMisses::total         3084                       # number of overall misses (Count)
board.cache_hierarchy.l1icaches.demandMissLatency::processor.cores.core.inst    170389218                       # number of demand (read+write) miss ticks (Tick)
board.cache_hierarchy.l1icaches.demandMissLatency::total    170389218                       # number of demand (read+write) miss ticks (Tick)
board.cache_hierarchy.l1icaches.overallMissLatency::processor.cores.core.inst    170389218                       # number of overall miss ticks (Tick)
board.cache_hierarchy.l1icaches.overallMissLatency::total    170389218                       # number of overall miss ticks (Tick)
board.cache_hierarchy.l1icaches.demandAccesses::processor.cores.core.inst      2135471                       # number of demand (read+write) accesses (Count)
board.cache_hierarchy.l1icaches.demandAccesses::total      2135471                       # number of demand (read+write) accesses (Count)
board.cache_hierarchy.l1icaches.overallAccesses::processor.cores.core.inst      2135471                       # number of overall (read+write) accesses (Count)
board.cache_hierarchy.l1icaches.overallAccesses::total      2135471                       # number of overall (read+write) accesses (Count)
board.cache_hierarchy.l1icaches.demandMissRate::processor.cores.core.inst     0.001444                       # miss rate for demand accesses (Ratio)
board.cache_hierarchy.l1icaches.demandMissRate::total     0.001444                       # miss rate for demand accesses (Ratio)
board.cache_hierarchy.l1icaches.overallMissRate::processor.cores.core.inst     0.001444                       # miss rate for overall accesses (Ratio)
board.cache_hierarchy.l1icaches.overallMissRate::total     0.001444                       # miss rate for overall accesses (Ratio)
board.cache_hierarchy.l1icaches.demandAvgMissLatency::processor.cores.core.inst 55249.422179                       # average overall miss latency in ticks ((Tick/Count))
board.cache_hierarchy.l1icaches.demandAvgMissLatency::total 55249.422179                       # average overall miss latency in ticks ((Tick/Count))
board.cache_hierarchy.l1icaches.overallAvgMissLatency::processor.cores.core.inst 55249.422179                       # average overall miss latency ((Tick/Count))
board.cache_hierarchy.l1icaches.overallAvgMissLatency::total 55249.422179                       # average overall miss latency ((Tick/Count))
board.cache_hierarchy.l1icaches.blockedCycles::no_mshrs            0                       # number of cycles access was blocked (Cycle)
board.cache_hierarchy.l1icaches.blockedCycles::no_wbuffers            0                       # number of cycles access was blocked (Cycle)
board.cache_hierarchy.l1icaches.blockedCycles::no_targets            0                       # number of cycles access was blocked (Cycle)
board.cache_hierarchy.l1icaches.blockedCauses::no_mshrs            0                       # number of times access was blocked (Count)
board.cache_hierarchy.l1icaches.blockedCauses::no_wbuffers            0                       # number of times access was blocked (Count)
board.cache_hierarchy.l1icaches.blockedCauses::no_targets            0                       # number of times access was blocked (Count)
board.cache_hierarchy.l1icaches.avgBlocked::no_mshrs          nan                       # average number of cycles each access was blocked ((Cycle/Count))
board.cache_hierarchy.l1icaches.avgBlocked::no_wbuffers          nan                       # average number of cycles each access was blocked ((Cycle/Count))
board.cache_hierarchy.l1icaches.avgBlocked::no_targets          nan                       # average number of cycles each access was blocked ((Cycle/Count))
board.cache_hierarchy.l1icaches.demandMshrHits::processor.cores.core.inst          804                       # number of demand (read+write) MSHR hits (Count)
board.cache_hierarchy.l1icaches.demandMshrHits::total          804                       # number of demand (read+write) MSHR hits (Count)
board.cache_hierarchy.l1icaches.overallMshrHits::processor.cores.core.inst          804                       # number of overall MSHR hits (Count)
board.cache_hierarchy.l1icaches.overallMshrHits::total          804                       # number of overall MSHR hits (Count)
board.cache_hierarchy.l1icaches.demandMshrMisses::processor.cores.core.inst         2280                       # number of demand (read+write) MSHR misses (Count)
board.cache_hierarchy.l1icaches.demandMshrMisses::total         2280                       # number of demand (read+write) MSHR misses (Count)
board.cache_hierarchy.l1icaches.overallMshrMisses::processor.cores.core.inst         2280                       # number of overall MSHR misses (Count)
board.cache_hierarchy.l1icaches.overallMshrMisses::total         2280                       # number of overall MSHR misses (Count)
board.cache_hierarchy.l1icaches.demandMshrMissLatency::processor.cores.core.inst    126205002                       # number of demand (read+write) MSHR miss ticks (Tick)
board.cache_hierarchy.l1icaches.demandMshrMissLatency::total    126205002                       # number of demand (read+write) MSHR miss ticks (Tick)
board.cache_hierarchy.l1icaches.overallMshrMissLatency::processor.cores.core.inst    126205002                       # number of overall MSHR miss ticks (Tick)
board.cache_hierarchy.l1icaches.overallMshrMissLatency::total    126205002                       # number of overall MSHR miss ticks (Tick)
board.cache_hierarchy.l1icaches.demandMshrMissRate::processor.cores.core.inst     0.001068                       # mshr miss ratio for demand accesses (Ratio)
board.cache_hierarchy.l1icaches.demandMshrMissRate::total     0.001068                       # mshr miss ratio for demand accesses (Ratio)
board.cache_hierarchy.l1icaches.overallMshrMissRate::processor.cores.core.inst     0.001068                       # mshr miss ratio for overall accesses (Ratio)
board.cache_hierarchy.l1icaches.overallMshrMissRate::total     0.001068                       # mshr miss ratio for overall accesses (Ratio)
board.cache_hierarchy.l1icaches.demandAvgMshrMissLatency::processor.cores.core.inst 55353.071053                       # average overall mshr miss latency ((Tick/Count))
board.cache_hierarchy.l1icaches.demandAvgMshrMissLatency::total 55353.071053                       # average overall mshr miss latency ((Tick/Count))
board.cache_hierarchy.l1icaches.overallAvgMshrMissLatency::processor.cores.core.inst 55353.071053                       # average overall mshr miss latency ((Tick/Count))
board.cache_hierarchy.l1icaches.overallAvgMshrMissLatency::total 55353.071053                       # average overall mshr miss latency ((Tick/Count))
board.cache_hierarchy.l1icaches.replacements         1766                       # number of replacements (Count)
board.cache_hierarchy.l1icaches.ReadReq.hits::processor.cores.core.inst      2132387                       # number of ReadReq hits (Count)
board.cache_hierarchy.l1icaches.ReadReq.hits::total      2132387                       # number of ReadReq hits (Count)
board.cache_hierarchy.l1icaches.ReadReq.misses::processor.cores.core.inst         3084                       # number of ReadReq misses (Count)
board.cache_hierarchy.l1icaches.ReadReq.misses::total         3084                       # number of ReadReq misses (Count)
board.cache_hierarchy.l1icaches.ReadReq.missLatency::processor.cores.core.inst    170389218                       # number of ReadReq miss ticks (Tick)
board.cache_hierarchy.l1icaches.ReadReq.missLatency::total    170389218                       # number of ReadReq miss ticks (Tick)
board.cache_hierarchy.l1icaches.ReadReq.accesses::processor.cores.core.inst      2135471                       # number of ReadReq accesses(hits+misses) (Count)
board.cache_hierarchy.l1icaches.ReadReq.accesses::total      2135471                       # number of ReadReq accesses(hits+misses) (Count)
board.cache_hierarchy.l1icaches.ReadReq.missRate::processor.cores.core.inst     0.001444                       # miss rate for ReadReq accesses (Ratio)
board.cache_hierarchy.l1icaches.ReadReq.missRate::total     0.001444                       # miss rate for ReadReq accesses (Ratio)
board.cache_hierarchy.l1icaches.ReadReq.avgMissLatency::processor.cores.core.inst 55249.422179                       # average ReadReq miss latency ((Tick/Count))
board.cache_hierarchy.l1icaches.ReadReq.avgMissLatency::total 55249.422179                       # average ReadReq miss latency ((Tick/Count))
board.cache_hierarchy.l1icaches.ReadReq.mshrHits::processor.cores.core.inst          804                       # number of ReadReq MSHR hits (Count)
board.cache_hierarchy.l1icaches.ReadReq.mshrHits::total          804                       # number of ReadReq MSHR hits (Count)
board.cache_hierarchy.l1icaches.ReadReq.mshrMisses::processor.cores.core.inst         2280                       # number of ReadReq MSHR misses (Count)
board.cache_hierarchy.l1icaches.ReadReq.mshrMisses::total         2280                       # number of ReadReq MSHR misses (Count)
board.cache_hierarchy.l1icaches.ReadReq.mshrMissLatency::processor.cores.core.inst    126205002                       # number of ReadReq MSHR miss ticks (Tick)
board.cache_hierarchy.l1icaches.ReadReq.mshrMissLatency::total    126205002                       # number of ReadReq MSHR miss ticks (Tick)
board.cache_hierarchy.l1icaches.ReadReq.mshrMissRate::processor.cores.core.inst     0.001068                       # mshr miss rate for ReadReq accesses (Ratio)
board.cache_hierarchy.l1icaches.ReadReq.mshrMissRate::total     0.001068                       # mshr miss rate for ReadReq accesses (Ratio)
board.cache_hierarchy.l1icaches.ReadReq.avgMshrMissLatency::processor.cores.core.inst 55353.071053                       # average ReadReq mshr miss latency ((Tick/Count))
board.cache_hierarchy.l1icaches.ReadReq.avgMshrMissLatency::total 55353.071053                       # average ReadReq mshr miss latency ((Tick/Count))
board.cache_hierarchy.l1icaches.power_state.pwrStateResidencyTicks::UNDEFINED   1422809100                       # Cumulative time (in ticks) in various power states (Tick)
board.cache_hierarchy.l1icaches.prefetcher.demandMshrMisses         2280                       # demands not covered by prefetchs (Count)
board.cache_hierarchy.l1icaches.prefetcher.pfIssued            0                       # number of hwpf issued (Count)
board.cache_hierarchy.l1icaches.prefetcher.pfUseful            0                       # number of useful prefetch (Count)
board.cache_hierarchy.l1icaches.prefetcher.pfUsefulButMiss            0                       # number of hit on prefetch but cache block is not in an usable state (Count)
board.cache_hierarchy.l1icaches.prefetcher.accuracy          nan                       # accuracy of the prefetcher (Count)
board.cache_hierarchy.l1icaches.prefetcher.coverage            0                       # coverage brought by this prefetcher (Count)
board.cache_hierarchy.l1icaches.prefetcher.pfHitInCache            0                       # number of prefetches hitting in cache (Count)
board.cache_hierarchy.l1icaches.prefetcher.pfHitInMSHR            0                       # number of prefetches hitting in a MSHR (Count)
board.cache_hierarchy.l1icaches.prefetcher.pfHitInWB            0                       # number of prefetches hit in the Write Buffer (Count)
board.cache_hierarchy.l1icaches.prefetcher.pfLate            0                       # number of late prefetches (hitting in cache, MSHR or WB) (Count)
board.cache_hierarchy.l1icaches.prefetcher.pfIdentified            0                       # number of prefetch candidates identified (Count)
board.cache_hierarchy.l1icaches.prefetcher.pfBufferHit            0                       # number of redundant prefetches already in prefetch queue (Count)
board.cache_hierarchy.l1icaches.prefetcher.pfInCache            0                       # number of redundant prefetches already in cache/mshr dropped (Count)
board.cache_hierarchy.l1icaches.prefetcher.pfRemovedDemand            0                       # number of prefetches dropped due to a demand for the same address (Count)
board.cache_hierarchy.l1icaches.prefetcher.pfRemovedFull            0                       # number of prefetches dropped due to prefetch queue size (Count)
board.cache_hierarchy.l1icaches.prefetcher.pfSpanPage            0                       # number of prefetches that crossed the page (Count)
board.cache_hierarchy.l1icaches.prefetcher.pfUsefulSpanPage            0                       # number of prefetches that is useful and crossed the page (Count)
board.cache_hierarchy.l1icaches.prefetcher.power_state.pwrStateResidencyTicks::UNDEFINED   1422809100                       # Cumulative time (in ticks) in various power states (Tick)
board.cache_hierarchy.l1icaches.tags.tagsInUse   506.203070                       # Average ticks per tags in use ((Tick/Count))
board.cache_hierarchy.l1icaches.tags.totalRefs      2134665                       # Total number of references to valid blocks. (Count)
board.cache_hierarchy.l1icaches.tags.sampledRefs         2278                       # Sample count of references to valid blocks. (Count)
board.cache_hierarchy.l1icaches.tags.avgRefs   937.078578                       # Average number of references to valid blocks. ((Count/Count))
board.cache_hierarchy.l1icaches.tags.warmupTick        70152                       # The tick when the warmup percentage was hit. (Tick)
board.cache_hierarchy.l1icaches.tags.occupancies::processor.cores.core.inst   506.203070                       # Average occupied blocks per tick, per requestor ((Count/Tick))
board.cache_hierarchy.l1icaches.tags.avgOccs::processor.cores.core.inst     0.988678                       # Average percentage of cache occupancy ((Ratio/Tick))
board.cache_hierarchy.l1icaches.tags.avgOccs::total     0.988678                       # Average percentage of cache occupancy ((Ratio/Tick))
board.cache_hierarchy.l1icaches.tags.occupanciesTaskId::1024          512                       # Occupied blocks per task id (Count)
board.cache_hierarchy.l1icaches.tags.ageTaskId_1024::0          301                       # Occupied blocks per task id, per block age (Count)
board.cache_hierarchy.l1icaches.tags.ageTaskId_1024::1           78                       # Occupied blocks per task id, per block age (Count)
board.cache_hierarchy.l1icaches.tags.ageTaskId_1024::2           50                       # Occupied blocks per task id, per block age (Count)
board.cache_hierarchy.l1icaches.tags.ageTaskId_1024::3           83                       # Occupied blocks per task id, per block age (Count)
board.cache_hierarchy.l1icaches.tags.ratioOccsTaskId::1024            1                       # Ratio of occupied blocks and all blocks, per task id (Ratio)
board.cache_hierarchy.l1icaches.tags.tagAccesses     17086046                       # Number of tag accesses (Count)
board.cache_hierarchy.l1icaches.tags.dataAccesses     17086046                       # Number of data accesses (Count)
board.cache_hierarchy.l1icaches.tags.power_state.pwrStateResidencyTicks::UNDEFINED   1422809100                       # Cumulative time (in ticks) in various power states (Tick)
board.cache_hierarchy.l2bus.transDist::ReadResp        24726                       # Transaction distribution (Count)
board.cache_hierarchy.l2bus.transDist::WritebackDirty        27884                       # Transaction distribution (Count)
board.cache_hierarchy.l2bus.transDist::CleanEvict         5580                       # Transaction distribution (Count)
board.cache_hierarchy.l2bus.transDist::HardPFReq         5861                       # Transaction distribution (Count)
board.cache_hierarchy.l2bus.transDist::ReadExReq         9713                       # Transaction distribution (Count)
board.cache_hierarchy.l2bus.transDist::ReadExResp         9713                       # Transaction distribution (Count)
board.cache_hierarchy.l2bus.transDist::ReadSharedReq        24729                       # Transaction distribution (Count)
board.cache_hierarchy.l2bus.transDist::InvalidateReq           49                       # Transaction distribution (Count)
board.cache_hierarchy.l2bus.transDist::InvalidateResp           49                       # Transaction distribution (Count)
board.cache_hierarchy.l2bus.pktCount_board.cache_hierarchy.l1icaches.mem_side_port::board.cache_hierarchy.l2cache.cpu_side_port         6324                       # Packet count per connected requestor and responder (Count)
board.cache_hierarchy.l2bus.pktCount_board.cache_hierarchy.l1dcaches.mem_side_port::board.cache_hierarchy.l2cache.cpu_side_port        96119                       # Packet count per connected requestor and responder (Count)
board.cache_hierarchy.l2bus.pktCount::total       102443                       # Packet count per connected requestor and responder (Count)
board.cache_hierarchy.l2bus.pktSize_board.cache_hierarchy.l1icaches.mem_side_port::board.cache_hierarchy.l2cache.cpu_side_port       145792                       # Cumulative packet size per connected requestor and responder (Byte)
board.cache_hierarchy.l2bus.pktSize_board.cache_hierarchy.l1dcaches.mem_side_port::board.cache_hierarchy.l2cache.cpu_side_port      3842880                       # Cumulative packet size per connected requestor and responder (Byte)
board.cache_hierarchy.l2bus.pktSize::total      3988672                       # Cumulative packet size per connected requestor and responder (Byte)
board.cache_hierarchy.l2bus.snoops               5861                       # Total snoops (Count)
board.cache_hierarchy.l2bus.snoopTraffic            0                       # Total snoop traffic (Byte)
board.cache_hierarchy.l2bus.snoopFanout::samples        40352                       # Request fanout histogram (Count)
board.cache_hierarchy.l2bus.snoopFanout::mean     0.000124                       # Request fanout histogram (Count)
board.cache_hierarchy.l2bus.snoopFanout::stdev     0.011131                       # Request fanout histogram (Count)
board.cache_hierarchy.l2bus.snoopFanout::underflows            0      0.00%      0.00% # Request fanout histogram (Count)
board.cache_hierarchy.l2bus.snoopFanout::0        40347     99.99%     99.99% # Request fanout histogram (Count)
board.cache_hierarchy.l2bus.snoopFanout::1            5      0.01%    100.00% # Request fanout histogram (Count)
board.cache_hierarchy.l2bus.snoopFanout::2            0      0.00%    100.00% # Request fanout histogram (Count)
board.cache_hierarchy.l2bus.snoopFanout::overflows            0      0.00%    100.00% # Request fanout histogram (Count)
board.cache_hierarchy.l2bus.snoopFanout::min_value            0                       # Request fanout histogram (Count)
board.cache_hierarchy.l2bus.snoopFanout::max_value            1                       # Request fanout histogram (Count)
board.cache_hierarchy.l2bus.snoopFanout::total        40352                       # Request fanout histogram (Count)
board.cache_hierarchy.l2bus.power_state.pwrStateResidencyTicks::UNDEFINED   1422809100                       # Cumulative time (in ticks) in various power states (Tick)
board.cache_hierarchy.l2bus.reqLayer0.occupancy     29912687                       # Layer occupancy (ticks) (Tick)
board.cache_hierarchy.l2bus.reqLayer0.utilization          0.0                       # Layer utilization (Ratio)
board.cache_hierarchy.l2bus.respLayer0.occupancy      1519800                       # Layer occupancy (ticks) (Tick)
board.cache_hierarchy.l2bus.respLayer0.utilization          0.0                       # Layer utilization (Ratio)
board.cache_hierarchy.l2bus.respLayer1.occupancy     21430104                       # Layer occupancy (ticks) (Tick)
board.cache_hierarchy.l2bus.respLayer1.utilization          0.0                       # Layer utilization (Ratio)
board.cache_hierarchy.l2bus.snoop_filter.totRequests        67955                       # Total number of requests made to the snoop filter. (Count)
board.cache_hierarchy.l2bus.snoop_filter.hitSingleRequests        33464                       # Number of requests hitting in the snoop filter with a single holder of the requested data. (Count)
board.cache_hierarchy.l2bus.snoop_filter.hitMultiRequests            2                       # Number of requests hitting in the snoop filter with multiple (>1) holders of the requested data. (Count)
board.cache_hierarchy.l2bus.snoop_filter.totSnoops            3                       # Total number of snoops made to the snoop filter. (Count)
board.cache_hierarchy.l2bus.snoop_filter.hitSingleSnoops            3                       # Number of snoops hitting in the snoop filter with a single holder of the requested data. (Count)
board.cache_hierarchy.l2bus.snoop_filter.hitMultiSnoops            0                       # Number of snoops hitting in the snoop filter with multiple (>1) holders of the requested data. (Count)
board.cache_hierarchy.l2cache.demandHits::cache_hierarchy.l1dcaches.prefetcher        12804                       # number of demand (read+write) hits (Count)
board.cache_hierarchy.l2cache.demandHits::processor.cores.core.inst          413                       # number of demand (read+write) hits (Count)
board.cache_hierarchy.l2cache.demandHits::processor.cores.core.data        13136                       # number of demand (read+write) hits (Count)
board.cache_hierarchy.l2cache.demandHits::total        26353                       # number of demand (read+write) hits (Count)
board.cache_hierarchy.l2cache.overallHits::cache_hierarchy.l1dcaches.prefetcher        12804                       # number of overall hits (Count)
board.cache_hierarchy.l2cache.overallHits::processor.cores.core.inst          413                       # number of overall hits (Count)
board.cache_hierarchy.l2cache.overallHits::processor.cores.core.data        13136                       # number of overall hits (Count)
board.cache_hierarchy.l2cache.overallHits::total        26353                       # number of overall hits (Count)
board.cache_hierarchy.l2cache.demandMisses::cache_hierarchy.l1dcaches.prefetcher         3241                       # number of demand (read+write) misses (Count)
board.cache_hierarchy.l2cache.demandMisses::processor.cores.core.inst         1867                       # number of demand (read+write) misses (Count)
board.cache_hierarchy.l2cache.demandMisses::processor.cores.core.data         2981                       # number of demand (read+write) misses (Count)
board.cache_hierarchy.l2cache.demandMisses::total         8089                       # number of demand (read+write) misses (Count)
board.cache_hierarchy.l2cache.overallMisses::cache_hierarchy.l1dcaches.prefetcher         3241                       # number of overall misses (Count)
board.cache_hierarchy.l2cache.overallMisses::processor.cores.core.inst         1867                       # number of overall misses (Count)
board.cache_hierarchy.l2cache.overallMisses::processor.cores.core.data         2981                       # number of overall misses (Count)
board.cache_hierarchy.l2cache.overallMisses::total         8089                       # number of overall misses (Count)
board.cache_hierarchy.l2cache.demandMissLatency::cache_hierarchy.l1dcaches.prefetcher    248757610                       # number of demand (read+write) miss ticks (Tick)
board.cache_hierarchy.l2cache.demandMissLatency::processor.cores.core.inst    124147728                       # number of demand (read+write) miss ticks (Tick)
board.cache_hierarchy.l2cache.demandMissLatency::processor.cores.core.data    211055622                       # number of demand (read+write) miss ticks (Tick)
board.cache_hierarchy.l2cache.demandMissLatency::total    583960960                       # number of demand (read+write) miss ticks (Tick)
board.cache_hierarchy.l2cache.overallMissLatency::cache_hierarchy.l1dcaches.prefetcher    248757610                       # number of overall miss ticks (Tick)
board.cache_hierarchy.l2cache.overallMissLatency::processor.cores.core.inst    124147728                       # number of overall miss ticks (Tick)
board.cache_hierarchy.l2cache.overallMissLatency::processor.cores.core.data    211055622                       # number of overall miss ticks (Tick)
board.cache_hierarchy.l2cache.overallMissLatency::total    583960960                       # number of overall miss ticks (Tick)
board.cache_hierarchy.l2cache.demandAccesses::cache_hierarchy.l1dcaches.prefetcher        16045                       # number of demand (read+write) accesses (Count)
board.cache_hierarchy.l2cache.demandAccesses::processor.cores.core.inst         2280                       # number of demand (read+write) accesses (Count)
board.cache_hierarchy.l2cache.demandAccesses::processor.cores.core.data        16117                       # number of demand (read+write) accesses (Count)
board.cache_hierarchy.l2cache.demandAccesses::total        34442                       # number of demand (read+write) accesses (Count)
board.cache_hierarchy.l2cache.overallAccesses::cache_hierarchy.l1dcaches.prefetcher        16045                       # number of overall (read+write) accesses (Count)
board.cache_hierarchy.l2cache.overallAccesses::processor.cores.core.inst         2280                       # number of overall (read+write) accesses (Count)
board.cache_hierarchy.l2cache.overallAccesses::processor.cores.core.data        16117                       # number of overall (read+write) accesses (Count)
board.cache_hierarchy.l2cache.overallAccesses::total        34442                       # number of overall (read+write) accesses (Count)
board.cache_hierarchy.l2cache.demandMissRate::cache_hierarchy.l1dcaches.prefetcher     0.201994                       # miss rate for demand accesses (Ratio)
board.cache_hierarchy.l2cache.demandMissRate::processor.cores.core.inst     0.818860                       # miss rate for demand accesses (Ratio)
board.cache_hierarchy.l2cache.demandMissRate::processor.cores.core.data     0.184960                       # miss rate for demand accesses (Ratio)
board.cache_hierarchy.l2cache.demandMissRate::total     0.234859                       # miss rate for demand accesses (Ratio)
board.cache_hierarchy.l2cache.overallMissRate::cache_hierarchy.l1dcaches.prefetcher     0.201994                       # miss rate for overall accesses (Ratio)
board.cache_hierarchy.l2cache.overallMissRate::processor.cores.core.inst     0.818860                       # miss rate for overall accesses (Ratio)
board.cache_hierarchy.l2cache.overallMissRate::processor.cores.core.data     0.184960                       # miss rate for overall accesses (Ratio)
board.cache_hierarchy.l2cache.overallMissRate::total     0.234859                       # miss rate for overall accesses (Ratio)
board.cache_hierarchy.l2cache.demandAvgMissLatency::cache_hierarchy.l1dcaches.prefetcher 76753.350818                       # average overall miss latency in ticks ((Tick/Count))
board.cache_hierarchy.l2cache.demandAvgMissLatency::processor.cores.core.inst 66495.837172                       # average overall miss latency in ticks ((Tick/Count))
board.cache_hierarchy.l2cache.demandAvgMissLatency::processor.cores.core.data 70800.275746                       # average overall miss latency in ticks ((Tick/Count))
board.cache_hierarchy.l2cache.demandAvgMissLatency::total 72191.984176                       # average overall miss latency in ticks ((Tick/Count))
board.cache_hierarchy.l2cache.overallAvgMissLatency::cache_hierarchy.l1dcaches.prefetcher 76753.350818                       # average overall miss latency ((Tick/Count))
board.cache_hierarchy.l2cache.overallAvgMissLatency::processor.cores.core.inst 66495.837172                       # average overall miss latency ((Tick/Count))
board.cache_hierarchy.l2cache.overallAvgMissLatency::processor.cores.core.data 70800.275746                       # average overall miss latency ((Tick/Count))
board.cache_hierarchy.l2cache.overallAvgMissLatency::total 72191.984176                       # average overall miss latency ((Tick/Count))
board.cache_hierarchy.l2cache.blockedCycles::no_mshrs            0                       # number of cycles access was blocked (Cycle)
board.cache_hierarchy.l2cache.blockedCycles::no_wbuffers            0                       # number of cycles access was blocked (Cycle)
board.cache_hierarchy.l2cache.blockedCycles::no_targets            0                       # number of cycles access was blocked (Cycle)
board.cache_hierarchy.l2cache.blockedCauses::no_mshrs            0                       # number of times access was blocked (Count)
board.cache_hierarchy.l2cache.blockedCauses::no_wbuffers            0                       # number of times access was blocked (Count)
board.cache_hierarchy.l2cache.blockedCauses::no_targets            0                       # number of times access was blocked (Count)
board.cache_hierarchy.l2cache.avgBlocked::no_mshrs          nan                       # average number of cycles each access was blocked ((Cycle/Count))
board.cache_hierarchy.l2cache.avgBlocked::no_wbuffers          nan                       # average number of cycles each access was blocked ((Cycle/Count))
board.cache_hierarchy.l2cache.avgBlocked::no_targets          nan                       # average number of cycles each access was blocked ((Cycle/Count))
board.cache_hierarchy.l2cache.demandMshrHits::cache_hierarchy.l1dcaches.prefetcher         2906                       # number of demand (read+write) MSHR hits (Count)
board.cache_hierarchy.l2cache.demandMshrHits::processor.cores.core.data           48                       # number of demand (read+write) MSHR hits (Count)
board.cache_hierarchy.l2cache.demandMshrHits::total         2954                       # number of demand (read+write) MSHR hits (Count)
board.cache_hierarchy.l2cache.overallMshrHits::cache_hierarchy.l1dcaches.prefetcher         2906                       # number of overall MSHR hits (Count)
board.cache_hierarchy.l2cache.overallMshrHits::processor.cores.core.data           48                       # number of overall MSHR hits (Count)
board.cache_hierarchy.l2cache.overallMshrHits::total         2954                       # number of overall MSHR hits (Count)
board.cache_hierarchy.l2cache.demandMshrMisses::cache_hierarchy.l1dcaches.prefetcher          335                       # number of demand (read+write) MSHR misses (Count)
board.cache_hierarchy.l2cache.demandMshrMisses::processor.cores.core.inst         1867                       # number of demand (read+write) MSHR misses (Count)
board.cache_hierarchy.l2cache.demandMshrMisses::processor.cores.core.data         2933                       # number of demand (read+write) MSHR misses (Count)
board.cache_hierarchy.l2cache.demandMshrMisses::total         5135                       # number of demand (read+write) MSHR misses (Count)
board.cache_hierarchy.l2cache.overallMshrMisses::cache_hierarchy.l1dcaches.prefetcher          335                       # number of overall MSHR misses (Count)
board.cache_hierarchy.l2cache.overallMshrMisses::cache_hierarchy.l2cache.prefetcher         5468                       # number of overall MSHR misses (Count)
board.cache_hierarchy.l2cache.overallMshrMisses::processor.cores.core.inst         1867                       # number of overall MSHR misses (Count)
board.cache_hierarchy.l2cache.overallMshrMisses::processor.cores.core.data         2933                       # number of overall MSHR misses (Count)
board.cache_hierarchy.l2cache.overallMshrMisses::total        10603                       # number of overall MSHR misses (Count)
board.cache_hierarchy.l2cache.demandMshrMissLatency::cache_hierarchy.l1dcaches.prefetcher     46010301                       # number of demand (read+write) MSHR miss ticks (Tick)
board.cache_hierarchy.l2cache.demandMshrMissLatency::processor.cores.core.inst    123733698                       # number of demand (read+write) MSHR miss ticks (Tick)
board.cache_hierarchy.l2cache.demandMshrMissLatency::processor.cores.core.data    208613178                       # number of demand (read+write) MSHR miss ticks (Tick)
board.cache_hierarchy.l2cache.demandMshrMissLatency::total    378357177                       # number of demand (read+write) MSHR miss ticks (Tick)
board.cache_hierarchy.l2cache.overallMshrMissLatency::cache_hierarchy.l1dcaches.prefetcher     46010301                       # number of overall MSHR miss ticks (Tick)
board.cache_hierarchy.l2cache.overallMshrMissLatency::cache_hierarchy.l2cache.prefetcher    552550690                       # number of overall MSHR miss ticks (Tick)
board.cache_hierarchy.l2cache.overallMshrMissLatency::processor.cores.core.inst    123733698                       # number of overall MSHR miss ticks (Tick)
board.cache_hierarchy.l2cache.overallMshrMissLatency::processor.cores.core.data    208613178                       # number of overall MSHR miss ticks (Tick)
board.cache_hierarchy.l2cache.overallMshrMissLatency::total    930907867                       # number of overall MSHR miss ticks (Tick)
board.cache_hierarchy.l2cache.demandMshrMissRate::cache_hierarchy.l1dcaches.prefetcher     0.020879                       # mshr miss ratio for demand accesses (Ratio)
board.cache_hierarchy.l2cache.demandMshrMissRate::processor.cores.core.inst     0.818860                       # mshr miss ratio for demand accesses (Ratio)
board.cache_hierarchy.l2cache.demandMshrMissRate::processor.cores.core.data     0.181982                       # mshr miss ratio for demand accesses (Ratio)
board.cache_hierarchy.l2cache.demandMshrMissRate::total     0.149091                       # mshr miss ratio for demand accesses (Ratio)
board.cache_hierarchy.l2cache.overallMshrMissRate::cache_hierarchy.l1dcaches.prefetcher     0.020879                       # mshr miss ratio for overall accesses (Ratio)
board.cache_hierarchy.l2cache.overallMshrMissRate::cache_hierarchy.l2cache.prefetcher          inf                       # mshr miss ratio for overall accesses (Ratio)
board.cache_hierarchy.l2cache.overallMshrMissRate::processor.cores.core.inst     0.818860                       # mshr miss ratio for overall accesses (Ratio)
board.cache_hierarchy.l2cache.overallMshrMissRate::processor.cores.core.data     0.181982                       # mshr miss ratio for overall accesses (Ratio)
board.cache_hierarchy.l2cache.overallMshrMissRate::total     0.307851                       # mshr miss ratio for overall accesses (Ratio)
board.cache_hierarchy.l2cache.demandAvgMshrMissLatency::cache_hierarchy.l1dcaches.prefetcher 137344.182090                       # average overall mshr miss latency ((Tick/Count))
board.cache_hierarchy.l2cache.demandAvgMshrMissLatency::processor.cores.core.inst 66274.074987                       # average overall mshr miss latency ((Tick/Count))
board.cache_hierarchy.l2cache.demandAvgMshrMissLatency::processor.cores.core.data 71126.211388                       # average overall mshr miss latency ((Tick/Count))
board.cache_hierarchy.l2cache.demandAvgMshrMissLatency::total 73682.020837                       # average overall mshr miss latency ((Tick/Count))
board.cache_hierarchy.l2cache.overallAvgMshrMissLatency::cache_hierarchy.l1dcaches.prefetcher 137344.182090                       # average overall mshr miss latency ((Tick/Count))
board.cache_hierarchy.l2cache.overallAvgMshrMissLatency::cache_hierarchy.l2cache.prefetcher 101051.698976                       # average overall mshr miss latency ((Tick/Count))
board.cache_hierarchy.l2cache.overallAvgMshrMissLatency::processor.cores.core.inst 66274.074987                       # average overall mshr miss latency ((Tick/Count))
board.cache_hierarchy.l2cache.overallAvgMshrMissLatency::processor.cores.core.data 71126.211388                       # average overall mshr miss latency ((Tick/Count))
board.cache_hierarchy.l2cache.overallAvgMshrMissLatency::total 87796.648779                       # average overall mshr miss latency ((Tick/Count))
board.cache_hierarchy.l2cache.replacements            0                       # number of replacements (Count)
board.cache_hierarchy.l2cache.HardPFReq.mshrMisses::cache_hierarchy.l2cache.prefetcher         5468                       # number of HardPFReq MSHR misses (Count)
board.cache_hierarchy.l2cache.HardPFReq.mshrMisses::total         5468                       # number of HardPFReq MSHR misses (Count)
board.cache_hierarchy.l2cache.HardPFReq.mshrMissLatency::cache_hierarchy.l2cache.prefetcher    552550690                       # number of HardPFReq MSHR miss ticks (Tick)
board.cache_hierarchy.l2cache.HardPFReq.mshrMissLatency::total    552550690                       # number of HardPFReq MSHR miss ticks (Tick)
board.cache_hierarchy.l2cache.HardPFReq.mshrMissRate::cache_hierarchy.l2cache.prefetcher          inf                       # mshr miss rate for HardPFReq accesses (Ratio)
board.cache_hierarchy.l2cache.HardPFReq.mshrMissRate::total          inf                       # mshr miss rate for HardPFReq accesses (Ratio)
board.cache_hierarchy.l2cache.HardPFReq.avgMshrMissLatency::cache_hierarchy.l2cache.prefetcher 101051.698976                       # average HardPFReq mshr miss latency ((Tick/Count))
board.cache_hierarchy.l2cache.HardPFReq.avgMshrMissLatency::total 101051.698976                       # average HardPFReq mshr miss latency ((Tick/Count))
board.cache_hierarchy.l2cache.InvalidateReq.hits::cache_hierarchy.l1dcaches.prefetcher            2                       # number of InvalidateReq hits (Count)
board.cache_hierarchy.l2cache.InvalidateReq.hits::processor.cores.core.data           19                       # number of InvalidateReq hits (Count)
board.cache_hierarchy.l2cache.InvalidateReq.hits::total           21                       # number of InvalidateReq hits (Count)
board.cache_hierarchy.l2cache.InvalidateReq.misses::processor.cores.core.data           28                       # number of InvalidateReq misses (Count)
board.cache_hierarchy.l2cache.InvalidateReq.misses::total           28                       # number of InvalidateReq misses (Count)
board.cache_hierarchy.l2cache.InvalidateReq.missLatency::processor.cores.core.data       556332                       # number of InvalidateReq miss ticks (Tick)
board.cache_hierarchy.l2cache.InvalidateReq.missLatency::total       556332                       # number of InvalidateReq miss ticks (Tick)
board.cache_hierarchy.l2cache.InvalidateReq.accesses::cache_hierarchy.l1dcaches.prefetcher            2                       # number of InvalidateReq accesses(hits+misses) (Count)
board.cache_hierarchy.l2cache.InvalidateReq.accesses::processor.cores.core.data           47                       # number of InvalidateReq accesses(hits+misses) (Count)
board.cache_hierarchy.l2cache.InvalidateReq.accesses::total           49                       # number of InvalidateReq accesses(hits+misses) (Count)
board.cache_hierarchy.l2cache.InvalidateReq.missRate::processor.cores.core.data     0.595745                       # miss rate for InvalidateReq accesses (Ratio)
board.cache_hierarchy.l2cache.InvalidateReq.missRate::total     0.571429                       # miss rate for InvalidateReq accesses (Ratio)
board.cache_hierarchy.l2cache.InvalidateReq.avgMissLatency::processor.cores.core.data        19869                       # average InvalidateReq miss latency ((Tick/Count))
board.cache_hierarchy.l2cache.InvalidateReq.avgMissLatency::total        19869                       # average InvalidateReq miss latency ((Tick/Count))
board.cache_hierarchy.l2cache.InvalidateReq.mshrHits::processor.cores.core.data            4                       # number of InvalidateReq MSHR hits (Count)
board.cache_hierarchy.l2cache.InvalidateReq.mshrHits::total            4                       # number of InvalidateReq MSHR hits (Count)
board.cache_hierarchy.l2cache.InvalidateReq.mshrMisses::processor.cores.core.data           24                       # number of InvalidateReq MSHR misses (Count)
board.cache_hierarchy.l2cache.InvalidateReq.mshrMisses::total           24                       # number of InvalidateReq MSHR misses (Count)
board.cache_hierarchy.l2cache.InvalidateReq.mshrMissLatency::processor.cores.core.data       101232                       # number of InvalidateReq MSHR miss ticks (Tick)
board.cache_hierarchy.l2cache.InvalidateReq.mshrMissLatency::total       101232                       # number of InvalidateReq MSHR miss ticks (Tick)
board.cache_hierarchy.l2cache.InvalidateReq.mshrMissRate::processor.cores.core.data     0.510638                       # mshr miss rate for InvalidateReq accesses (Ratio)
board.cache_hierarchy.l2cache.InvalidateReq.mshrMissRate::total     0.489796                       # mshr miss rate for InvalidateReq accesses (Ratio)
board.cache_hierarchy.l2cache.InvalidateReq.avgMshrMissLatency::processor.cores.core.data         4218                       # average InvalidateReq mshr miss latency ((Tick/Count))
board.cache_hierarchy.l2cache.InvalidateReq.avgMshrMissLatency::total         4218                       # average InvalidateReq mshr miss latency ((Tick/Count))
board.cache_hierarchy.l2cache.ReadExReq.hits::cache_hierarchy.l1dcaches.prefetcher           33                       # number of ReadExReq hits (Count)
board.cache_hierarchy.l2cache.ReadExReq.hits::processor.cores.core.data         7174                       # number of ReadExReq hits (Count)
board.cache_hierarchy.l2cache.ReadExReq.hits::total         7207                       # number of ReadExReq hits (Count)
board.cache_hierarchy.l2cache.ReadExReq.misses::processor.cores.core.data         2506                       # number of ReadExReq misses (Count)
board.cache_hierarchy.l2cache.ReadExReq.misses::total         2506                       # number of ReadExReq misses (Count)
board.cache_hierarchy.l2cache.ReadExReq.missLatency::processor.cores.core.data    173386218                       # number of ReadExReq miss ticks (Tick)
board.cache_hierarchy.l2cache.ReadExReq.missLatency::total    173386218                       # number of ReadExReq miss ticks (Tick)
board.cache_hierarchy.l2cache.ReadExReq.accesses::cache_hierarchy.l1dcaches.prefetcher           33                       # number of ReadExReq accesses(hits+misses) (Count)
board.cache_hierarchy.l2cache.ReadExReq.accesses::processor.cores.core.data         9680                       # number of ReadExReq accesses(hits+misses) (Count)
board.cache_hierarchy.l2cache.ReadExReq.accesses::total         9713                       # number of ReadExReq accesses(hits+misses) (Count)
board.cache_hierarchy.l2cache.ReadExReq.missRate::processor.cores.core.data     0.258884                       # miss rate for ReadExReq accesses (Ratio)
board.cache_hierarchy.l2cache.ReadExReq.missRate::total     0.258005                       # miss rate for ReadExReq accesses (Ratio)
board.cache_hierarchy.l2cache.ReadExReq.avgMissLatency::processor.cores.core.data 69188.434956                       # average ReadExReq miss latency ((Tick/Count))
board.cache_hierarchy.l2cache.ReadExReq.avgMissLatency::total 69188.434956                       # average ReadExReq miss latency ((Tick/Count))
board.cache_hierarchy.l2cache.ReadExReq.mshrHits::processor.cores.core.data            3                       # number of ReadExReq MSHR hits (Count)
board.cache_hierarchy.l2cache.ReadExReq.mshrHits::total            3                       # number of ReadExReq MSHR hits (Count)
board.cache_hierarchy.l2cache.ReadExReq.mshrMisses::processor.cores.core.data         2503                       # number of ReadExReq MSHR misses (Count)
board.cache_hierarchy.l2cache.ReadExReq.mshrMisses::total         2503                       # number of ReadExReq MSHR misses (Count)
board.cache_hierarchy.l2cache.ReadExReq.mshrMissLatency::processor.cores.core.data    172630530                       # number of ReadExReq MSHR miss ticks (Tick)
board.cache_hierarchy.l2cache.ReadExReq.mshrMissLatency::total    172630530                       # number of ReadExReq MSHR miss ticks (Tick)
board.cache_hierarchy.l2cache.ReadExReq.mshrMissRate::processor.cores.core.data     0.258574                       # mshr miss rate for ReadExReq accesses (Ratio)
board.cache_hierarchy.l2cache.ReadExReq.mshrMissRate::total     0.257696                       # mshr miss rate for ReadExReq accesses (Ratio)
board.cache_hierarchy.l2cache.ReadExReq.avgMshrMissLatency::processor.cores.core.data 68969.448662                       # average ReadExReq mshr miss latency ((Tick/Count))
[...]
board.processor.cores.core.lsq0.loadToUse::90-99          639      0.04%     99.79% # Distribution of cycle latency between the first time a load is issued and its completion (Cycle)
board.processor.cores.core.lsq0.loadToUse::100-109          185      0.01%     99.81% # Distribution of cycle latency between the first time a load is issued and its completion (Cycle)
board.processor.cores.core.lsq0.loadToUse::110-119          147      0.01%     99.82% # Distribution of cycle latency between the first time a load is issued and its completion (Cycle)
board.processor.cores.core.lsq0.loadToUse::120-129          188      0.01%     99.83% # Distribution of cycle latency between the first time a load is issued and its completion (Cycle)
board.processor.cores.core.lsq0.loadToUse::130-139          133      0.01%     99.84% # Distribution of cycle latency between the first time a load is issued and its completion (Cycle)
board.processor.cores.core.lsq0.loadToUse::140-149          178      0.01%     99.85% # Distribution of cycle latency between the first time a load is issued and its completion (Cycle)
board.processor.cores.core.lsq0.loadToUse::150-159          155      0.01%     99.86% # Distribution of cycle latency between the first time a load is issued and its completion (Cycle)
board.processor.cores.core.lsq0.loadToUse::160-169          206      0.01%     99.88% # Distribution of cycle latency between the first time a load is issued and its completion (Cycle)
board.processor.cores.core.lsq0.loadToUse::170-179          175      0.01%     99.89% # Distribution of cycle latency between the first time a load is issued and its completion (Cycle)
board.processor.cores.core.lsq0.loadToUse::180-189          183      0.01%     99.90% # Distribution of cycle latency between the first time a load is issued and its completion (Cycle)
board.processor.cores.core.lsq0.loadToUse::190-199          189      0.01%     99.92% # Distribution of cycle latency between the first time a load is issued and its completion (Cycle)
board.processor.cores.core.lsq0.loadToUse::200-209          156      0.01%     99.93% # Distribution of cycle latency between the first time a load is issued and its completion (Cycle)
board.processor.cores.core.lsq0.loadToUse::210-219           23      0.00%     99.93% # Distribution of cycle latency between the first time a load is issued and its completion (Cycle)
board.processor.cores.core.lsq0.loadToUse::220-229           41      0.00%     99.93% # Distribution of cycle latency between the first time a load is issued and its completion (Cycle)
board.processor.cores.core.lsq0.loadToUse::230-239           26      0.00%     99.93% # Distribution of cycle latency between the first time a load is issued and its completion (Cycle)
board.processor.cores.core.lsq0.loadToUse::240-249           36      0.00%     99.94% # Distribution of cycle latency between the first time a load is issued and its completion (Cycle)
board.processor.cores.core.lsq0.loadToUse::250-259           54      0.00%     99.94% # Distribution of cycle latency between the first time a load is issued and its completion (Cycle)
board.processor.cores.core.lsq0.loadToUse::260-269          292      0.02%     99.96% # Distribution of cycle latency between the first time a load is issued and its completion (Cycle)
board.processor.cores.core.lsq0.loadToUse::270-279           78      0.01%     99.97% # Distribution of cycle latency between the first time a load is issued and its completion (Cycle)
board.processor.cores.core.lsq0.loadToUse::280-289           30      0.00%     99.97% # Distribution of cycle latency between the first time a load is issued and its completion (Cycle)
board.processor.cores.core.lsq0.loadToUse::290-299           13      0.00%     99.97% # Distribution of cycle latency between the first time a load is issued and its completion (Cycle)
board.processor.cores.core.lsq0.loadToUse::overflows          430      0.03%    100.00% # Distribution of cycle latency between the first time a load is issued and its completion (Cycle)
board.processor.cores.core.lsq0.loadToUse::min_value            2                       # Distribution of cycle latency between the first time a load is issued and its completion (Cycle)
board.processor.cores.core.lsq0.loadToUse::max_value         1749                       # Distribution of cycle latency between the first time a load is issued and its completion (Cycle)
board.processor.cores.core.lsq0.loadToUse::total      1422048                       # Distribution of cycle latency between the first time a load is issued and its completion (Cycle)
board.processor.cores.core.lsq0.addedLoadsAndStores      3466889                       # Number of loads and stores written to the Load Store Queue (Count)
board.processor.cores.core.lsq0.lqAvgOccupancy         0.34                       # Average LQ Occupancy (UsedSlots/TotalSlots) (Ratio)
board.processor.cores.core.lsq0.sqAvgOccupancy         0.15                       # Average SQ Occupancy (UsedSlots/TotalSlots) (Ratio)
board.processor.cores.core.mmu.alignFaults            0                       # Number of MMU faults due to alignment restrictions (Count)
board.processor.cores.core.mmu.prefetchFaults            0                       # Number of MMU faults due to prefetch (Count)
board.processor.cores.core.mmu.domainFaults            0                       # Number of MMU faults due to domain restrictions (Count)
board.processor.cores.core.mmu.permsFaults            0                       # Number of MMU faults due to permissions restrictions (Count)
board.processor.cores.core.mmu.dtb.readHits            0                       # Read hits (Count)
board.processor.cores.core.mmu.dtb.readMisses            0                       # Read misses (Count)
board.processor.cores.core.mmu.dtb.writeHits            0                       # Write hits (Count)
board.processor.cores.core.mmu.dtb.writeMisses            0                       # Write misses (Count)
board.processor.cores.core.mmu.dtb.inserts            0                       # Number of times an entry is inserted into the TLB (Count)
board.processor.cores.core.mmu.dtb.flushTlb            2                       # Number of times a TLB invalidation was requested (Count)
board.processor.cores.core.mmu.dtb.flushedEntries            0                       # Number of entries that have been flushed from TLB (Count)
board.processor.cores.core.mmu.dtb.readAccesses            0                       # Read accesses (Count)
board.processor.cores.core.mmu.dtb.writeAccesses            0                       # Write accesses (Count)
board.processor.cores.core.mmu.dtb.hits             0                       # Total TLB (inst and data) hits (Count)
board.processor.cores.core.mmu.dtb.misses            0                       # Total TLB (inst and data) misses (Count)
board.processor.cores.core.mmu.dtb.accesses            0                       # Total TLB (inst and data) accesses (Count)
board.processor.cores.core.mmu.itb.instHits            0                       # Inst hits (Count)
board.processor.cores.core.mmu.itb.instMisses            0                       # Inst misses (Count)
board.processor.cores.core.mmu.itb.inserts            0                       # Number of times an entry is inserted into the TLB (Count)
board.processor.cores.core.mmu.itb.flushTlb            2                       # Number of times a TLB invalidation was requested (Count)
board.processor.cores.core.mmu.itb.flushedEntries            0                       # Number of entries that have been flushed from TLB (Count)
board.processor.cores.core.mmu.itb.instAccesses            0                       # Inst accesses (Count)
board.processor.cores.core.mmu.itb.hits             0                       # Total TLB (inst and data) hits (Count)
board.processor.cores.core.mmu.itb.misses            0                       # Total TLB (inst and data) misses (Count)
board.processor.cores.core.mmu.itb.accesses            0                       # Total TLB (inst and data) accesses (Count)
board.processor.cores.core.mmu.l2_shared.instHits            0                       # Inst hits (Count)
board.processor.cores.core.mmu.l2_shared.instMisses            0                       # Inst misses (Count)
board.processor.cores.core.mmu.l2_shared.inserts            0                       # Number of times an entry is inserted into the TLB (Count)
board.processor.cores.core.mmu.l2_shared.flushTlb            2                       # Number of times a TLB invalidation was requested (Count)
board.processor.cores.core.mmu.l2_shared.flushedEntries            0                       # Number of entries that have been flushed from TLB (Count)
board.processor.cores.core.mmu.l2_shared.instAccesses            0                       # Inst accesses (Count)
board.processor.cores.core.mmu.l2_shared.hits            0                       # Total TLB (inst and data) hits (Count)
board.processor.cores.core.mmu.l2_shared.misses            0                       # Total TLB (inst and data) misses (Count)
board.processor.cores.core.mmu.l2_shared.accesses            0                       # Total TLB (inst and data) accesses (Count)
board.processor.cores.core.mmu.stage2_dtb.readHits            0                       # Read hits (Count)
board.processor.cores.core.mmu.stage2_dtb.readMisses            0                       # Read misses (Count)
board.processor.cores.core.mmu.stage2_dtb.writeHits            0                       # Write hits (Count)
board.processor.cores.core.mmu.stage2_dtb.writeMisses            0                       # Write misses (Count)
board.processor.cores.core.mmu.stage2_dtb.inserts            0                       # Number of times an entry is inserted into the TLB (Count)
board.processor.cores.core.mmu.stage2_dtb.flushTlb            2                       # Number of times a TLB invalidation was requested (Count)
board.processor.cores.core.mmu.stage2_dtb.flushedEntries            0                       # Number of entries that have been flushed from TLB (Count)
board.processor.cores.core.mmu.stage2_dtb.readAccesses            0                       # Read accesses (Count)
board.processor.cores.core.mmu.stage2_dtb.writeAccesses            0                       # Write accesses (Count)
board.processor.cores.core.mmu.stage2_dtb.hits            0                       # Total TLB (inst and data) hits (Count)
board.processor.cores.core.mmu.stage2_dtb.misses            0                       # Total TLB (inst and data) misses (Count)
board.processor.cores.core.mmu.stage2_dtb.accesses            0                       # Total TLB (inst and data) accesses (Count)
board.processor.cores.core.mmu.stage2_itb.instHits            0                       # Inst hits (Count)
board.processor.cores.core.mmu.stage2_itb.instMisses            0                       # Inst misses (Count)
board.processor.cores.core.mmu.stage2_itb.inserts            0                       # Number of times an entry is inserted into the TLB (Count)
board.processor.cores.core.mmu.stage2_itb.flushTlb            2                       # Number of times a TLB invalidation was requested (Count)
board.processor.cores.core.mmu.stage2_itb.flushedEntries            0                       # Number of entries that have been flushed from TLB (Count)
board.processor.cores.core.mmu.stage2_itb.instAccesses            0                       # Inst accesses (Count)
board.processor.cores.core.mmu.stage2_itb.hits            0                       # Total TLB (inst and data) hits (Count)
board.processor.cores.core.mmu.stage2_itb.misses            0                       # Total TLB (inst and data) misses (Count)
board.processor.cores.core.mmu.stage2_itb.accesses            0                       # Total TLB (inst and data) accesses (Count)
board.processor.cores.core.mmu.walker.instructionWalksS1            0                       # Table walker stage 1 instruction walks requested (Count)
board.processor.cores.core.mmu.walker.instructionWalksS2            0                       # Table walker stage 2 instruction walks requested (Count)
board.processor.cores.core.mmu.walker.dataWalksS1            0                       # Table walker stage 1 data walks requested (Count)
board.processor.cores.core.mmu.walker.dataWalksS2            0                       # Table walker stage 2 data walks requested (Count)
board.processor.cores.core.mmu.walker.requestOrigin_Requested::Data            0                       # Table walker requests started/completed, data/inst (Count)
board.processor.cores.core.mmu.walker.requestOrigin_Requested::Inst            0                       # Table walker requests started/completed, data/inst (Count)
board.processor.cores.core.mmu.walker.requestOrigin_Requested::total            0                       # Table walker requests started/completed, data/inst (Count)
board.processor.cores.core.mmu.walker.requestOrigin_Completed::Data            0                       # Table walker requests started/completed, data/inst (Count)
board.processor.cores.core.mmu.walker.requestOrigin_Completed::Inst            0                       # Table walker requests started/completed, data/inst (Count)
board.processor.cores.core.mmu.walker.requestOrigin_Completed::total            0                       # Table walker requests started/completed, data/inst (Count)
board.processor.cores.core.mmu.walker.requestOrigin::total            0                       # Table walker requests started/completed, data/inst (Count)
board.processor.cores.core.mmu.walker.walks            0                       # Table walker walks requested (Count)
board.processor.cores.core.mmu.walker.power_state.pwrStateResidencyTicks::UNDEFINED   1422809100                       # Cumulative time (in ticks) in various power states (Tick)
board.processor.cores.core.mmu.walker.walk_unit_func_s1.power_state.pwrStateResidencyTicks::UNDEFINED   1422809100                       # Cumulative time (in ticks) in various power states (Tick)
board.processor.cores.core.mmu.walker.walk_unit_func_s2.power_state.pwrStateResidencyTicks::UNDEFINED   1422809100                       # Cumulative time (in ticks) in various power states (Tick)
board.processor.cores.core.mmu.walker.walk_units0.power_state.pwrStateResidencyTicks::UNDEFINED   1422809100                       # Cumulative time (in ticks) in various power states (Tick)
board.processor.cores.core.mmu.walker.walk_units1.power_state.pwrStateResidencyTicks::UNDEFINED   1422809100                       # Cumulative time (in ticks) in various power states (Tick)
board.processor.cores.core.mmu.walker.walk_units2.power_state.pwrStateResidencyTicks::UNDEFINED   1422809100                       # Cumulative time (in ticks) in various power states (Tick)
board.processor.cores.core.mmu.walker.walk_units3.power_state.pwrStateResidencyTicks::UNDEFINED   1422809100                       # Cumulative time (in ticks) in various power states (Tick)
board.processor.cores.core.mmu.walker.walk_units4.power_state.pwrStateResidencyTicks::UNDEFINED   1422809100                       # Cumulative time (in ticks) in various power states (Tick)
board.processor.cores.core.mmu.walker.walk_units5.power_state.pwrStateResidencyTicks::UNDEFINED   1422809100                       # Cumulative time (in ticks) in various power states (Tick)
board.processor.cores.core.mmu.walker.walk_units6.power_state.pwrStateResidencyTicks::UNDEFINED   1422809100                       # Cumulative time (in ticks) in various power states (Tick)
board.processor.cores.core.mmu.walker.walk_units7.power_state.pwrStateResidencyTicks::UNDEFINED   1422809100                       # Cumulative time (in ticks) in various power states (Tick)
board.processor.cores.core.power_state.pwrStateResidencyTicks::ON   1422809100                       # Cumulative time (in ticks) in various power states (Tick)
board.processor.cores.core.rename.status::Running      3455563     56.69%     56.69% # Number of cycles rename is running (Cycle)
board.processor.cores.core.rename.status::Idle       665112     10.91%     67.60% # Number of cycles rename is idle (Cycle)
board.processor.cores.core.rename.status::Squashing       215042      3.53%     71.13% # Number of cycles rename is squashing (Cycle)
board.processor.cores.core.rename.status::Blocked      1013843     16.63%     87.76% # Number of cycles rename is blocking (Cycle)
board.processor.cores.core.rename.status::Unblocking       738773     12.12%     99.88% # Number of cycles rename is unblocking (Cycle)
board.processor.cores.core.rename.status::SerializeStall         7479      0.12%    100.00% # Number of cycles rename stalled for serializing inst (Cycle)
board.processor.cores.core.rename.renamedInsts     20211047                       # Number of instructions processed by rename (Count)
board.processor.cores.core.rename.ROBFullEvents         2518                       # Number of times rename has blocked due to ROB full (Count)
board.processor.cores.core.rename.IQFullEvents       363175                       # Number of times rename has blocked due to IQ full (Count)
board.processor.cores.core.rename.LQFullEvents       443047                       # Number of times rename has blocked due to LQ full (Count)
board.processor.cores.core.rename.SQFullEvents        46883                       # Number of times rename has blocked due to SQ full (Count)
board.processor.cores.core.rename.renamedOperands     25945963                       # Number of destination operands rename has renamed (Count)
board.processor.cores.core.rename.lookups     36399330                       # Number of register rename lookups that rename has made (Count)
board.processor.cores.core.rename.intLookups     24666760                       # Number of integer rename lookups (Count)
board.processor.cores.core.rename.vecLookups       127841                       # Number of vector rename lookups (Count)
board.processor.cores.core.rename.matLookups           10                       # Number of matrix rename lookups (Count)
board.processor.cores.core.rename.committedMaps     12484601                       # Number of HB maps that are committed (Count)
board.processor.cores.core.rename.undoneMaps     13461362                       # Number of HB maps that are undone due to squashing (Count)
board.processor.cores.core.rename.serializing          120                       # count of serializing insts renamed (Count)
board.processor.cores.core.rename.tempSerializing          102                       # count of temporary serializing insts renamed (Count)
board.processor.cores.core.rename.skidInsts       930408                       # count of insts added to the skid buffer (Count)
board.processor.cores.core.rename.intReturned      6475985                       # count of registers freed and written back to integer free list (Count)
board.processor.cores.core.rob.reads         23398891                       # The number of ROB reads (Count)
board.processor.cores.core.rob.writes        36300200                       # The number of ROB writes (Count)
board.processor.cores.core.thread_0.numInsts      9593046                       # Number of Instructions committed (Count)
board.processor.cores.core.thread_0.numOps     10081556                       # Number of Ops committed (Count)
board.processor.cores.core.thread_0.numMemRefs      2020960                       # Number of Memory References (Count)
board.processor.cores.core.workload.numSyscalls           60                       # Number of system calls (Count)
board.workload.inst.arm                             0                       # number of arm instructions executed (Count)
board.workload.inst.quiesce                         0                       # number of quiesce instructions executed (Count)

---------- End Simulation Statistics   ----------
