
---------- Begin Simulation Statistics ----------
simSeconds                                   0.001883                       # Number of seconds simulated (Second)
simTicks                                   1882547790                       # Number of ticks simulated (Tick)
finalTick                                  1882547790                       # Number of ticks from beginning of simulation (restored from checkpoints and never reset) (Tick)
simFreq                                  1000000000000                       # The number of ticks per simulated second ((Tick/Second))
hostSeconds                                     31.47                       # Real time elapsed on the host (Second)
hostTickRate                                 59817153                       # The number of ticks simulated per host second (ticks/s) ((Tick/Second))
hostMemory                                    4496144                       # Number of bytes of host memory used (Byte)
simInsts                                     10458126                       # Number of instructions simulated (Count)
simOps                                       10590877                       # Number of ops (including micro ops) simulated (Count)
hostInstRate                                   332301                       # Simulator instruction rate (inst/s) ((Count/Second))
hostOpRate                                     336519                       # Simulator op (including micro ops) rate (op/s) ((Count/Second))
board.cache_hierarchy.l1dcaches.demandHits::processor.cores.core.data      2445963                       # number of demand (read+write) hits (Count)
board.cache_hierarchy.l1dcaches.demandHits::total      2445963                       # number of demand (read+write) hits (Count)
board.cache_hierarchy.l1dcaches.overallHits::processor.cores.core.data      2445963                       # number of overall hits (Count)
board.cache_hierarchy.l1dcaches.overallHits::total      2445963                       # number of overall hits (Count)
board.cache_hierarchy.l1dcaches.demandMisses::processor.cores.core.data        35716                       # number of demand (read+write) misses (Count)
board.cache_hierarchy.l1dcaches.demandMisses::total        35716                       # number of demand (read+write) misses (Count)
board.cache_hierarchy.l1dcaches.overallMisses::processor.cores.core.data        35716                       # number of overall misses (Count)
board.cache_hierarchy.l1dcaches.overallMisses::total        35716                       # number of overall misses (Count)
board.cache_hierarchy.l1dcaches.demandMissLatency::processor.cores.core.data    982455006                       # number of demand (read+write) miss ticks (Tick)
board.cache_hierarchy.l1dcaches.demandMissLatency::total    982455006                       # number of demand (read+write) miss ticks (Tick)
board.cache_hierarchy.l1dcaches.overallMissLatency::processor.cores.core.data    982455006                       # number of overall miss ticks (Tick)
board.cache_hierarchy.l1dcaches.overallMissLatency::total    982455006                       # number of overall miss ticks (Tick)
board.cache_hierarchy.l1dcaches.demandAccesses::processor.cores.core.data      2481679                       # number of demand (read+write) accesses (Count)
board.cache_hierarchy.l1dcaches.demandAccesses::total      2481679                       # number of demand (read+write) accesses (Count)
board.cache_hierarchy.l1dcaches.overallAccesses::processor.cores.core.data      2481679                       # number of overall (read+write) accesses (Count)
board.cache_hierarchy.l1dcaches.overallAccesses::total      2481679                       # number of overall (read+write) accesses (Count)
board.cache_hierarchy.l1dcaches.demandMissRate::processor.cores.core.data     0.014392                       # miss rate for demand accesses (Ratio)
board.cache_hierarchy.l1dcaches.demandMissRate::total     0.014392                       # miss rate for demand accesses (Ratio)
board.cache_hierarchy.l1dcaches.overallMissRate::processor.cores.core.data     0.014392                       # miss rate for overall accesses (Ratio)
board.cache_hierarchy.l1dcaches.overallMissRate::total     0.014392                       # miss rate for overall accesses (Ratio)
board.cache_hierarchy.l1dcaches.demandAvgMissLatency::processor.cores.core.data 27507.419812                       # average overall miss latency in ticks ((Tick/Count))
board.cache_hierarchy.l1dcaches.demandAvgMissLatency::total 27507.419812                       # average overall miss latency in ticks ((Tick/Count))
board.cache_hierarchy.l1dcaches.overallAvgMissLatency::processor.cores.core.data 27507.419812                       # average overall miss latency ((Tick/Count))
board.cache_hierarchy.l1dcaches.overallAvgMissLatency::total 27507.419812                       # average overall miss latency ((Tick/Count))
board.cache_hierarchy.l1dcaches.blockedCycles::no_mshrs            0                       # number of cycles access was blocked (Cycle)
board.cache_hierarchy.l1dcaches.blockedCycles::no_wbuffers            0                       # number of cycles access was blocked (Cycle)
board.cache_hierarchy.l1dcaches.blockedCycles::no_targets         3324                       # number of cycles access was blocked (Cycle)
board.cache_hierarchy.l1dcaches.blockedCauses::no_mshrs            0                       # number of times access was blocked (Count)
board.cache_hierarchy.l1dcaches.blockedCauses::no_wbuffers            0                       # number of times access was blocked (Count)
board.cache_hierarchy.l1dcaches.blockedCauses::no_targets           13                       # number of times access was blocked (Count)
board.cache_hierarchy.l1dcaches.avgBlocked::no_mshrs          nan                       # average number of cycles each access was blocked ((Cycle/Count))
board.cache_hierarchy.l1dcaches.avgBlocked::no_wbuffers          nan                       # average number of cycles each access was blocked ((Cycle/Count))
board.cache_hierarchy.l1dcaches.avgBlocked::no_targets   255.692308                       # average number of cycles each access was blocked ((Cycle/Count))
board.cache_hierarchy.l1dcaches.writebacks::writebacks        26948                       # number of writebacks (Count)
board.cache_hierarchy.l1dcaches.writebacks::total        26948                       # number of writebacks (Count)
board.cache_hierarchy.l1dcaches.demandMshrHits::processor.cores.core.data        23079                       # number of demand (read+write) MSHR hits (Count)
board.cache_hierarchy.l1dcaches.demandMshrHits::total        23079                       # number of demand (read+write) MSHR hits (Count)
board.cache_hierarchy.l1dcaches.overallMshrHits::processor.cores.core.data        23079                       # number of overall MSHR hits (Count)
board.cache_hierarchy.l1dcaches.overallMshrHits::total        23079                       # number of overall MSHR hits (Count)
board.cache_hierarchy.l1dcaches.demandMshrMisses::processor.cores.core.data        12637                       # number of demand (read+write) MSHR misses (Count)
board.cache_hierarchy.l1dcaches.demandMshrMisses::total        12637                       # number of demand (read+write) MSHR misses (Count)
board.cache_hierarchy.l1dcaches.overallMshrMisses::cache_hierarchy.l1dcaches.prefetcher        18031                       # number of overall MSHR misses (Count)
board.cache_hierarchy.l1dcaches.overallMshrMisses::processor.cores.core.data        12637                       # number of overall MSHR misses (Count)
board.cache_hierarchy.l1dcaches.overallMshrMisses::total        30668                       # number of overall MSHR misses (Count)
board.cache_hierarchy.l1dcaches.demandMshrMissLatency::processor.cores.core.data    249235626                       # number of demand (read+write) MSHR miss ticks (Tick)
board.cache_hierarchy.l1dcaches.demandMshrMissLatency::total    249235626                       # number of demand (read+write) MSHR miss ticks (Tick)
board.cache_hierarchy.l1dcaches.overallMshrMissLatency::cache_hierarchy.l1dcaches.prefetcher    294056623                       # number of overall MSHR miss ticks (Tick)
board.cache_hierarchy.l1dcaches.overallMshrMissLatency::processor.cores.core.data    249235626                       # number of overall MSHR miss ticks (Tick)
board.cache_hierarchy.l1dcaches.overallMshrMissLatency::total    543292249                       # number of overall MSHR miss ticks (Tick)
board.cache_hierarchy.l1dcaches.demandMshrMissRate::processor.cores.core.data     0.005092                       # mshr miss ratio for demand accesses (Ratio)
board.cache_hierarchy.l1dcaches.demandMshrMissRate::total     0.005092                       # mshr miss ratio for demand accesses (Ratio)
board.cache_hierarchy.l1dcaches.overallMshrMissRate::cache_hierarchy.l1dcaches.prefetcher          inf                       # mshr miss ratio for overall accesses (Ratio)
board.cache_hierarchy.l1dcaches.overallMshrMissRate::processor.cores.core.data     0.005092                       # mshr miss ratio for overall accesses (Ratio)
board.cache_hierarchy.l1dcaches.overallMshrMissRate::total     0.012358                       # mshr miss ratio for overall accesses (Ratio)
board.cache_hierarchy.l1dcaches.demandAvgMshrMissLatency::processor.cores.core.data 19722.689404                       # average overall mshr miss latency ((Tick/Count))
board.cache_hierarchy.l1dcaches.demandAvgMshrMissLatency::total 19722.689404                       # average overall mshr miss latency ((Tick/Count))
board.cache_hierarchy.l1dcaches.overallAvgMshrMissLatency::cache_hierarchy.l1dcaches.prefetcher 16308.392380                       # average overall mshr miss latency ((Tick/Count))
board.cache_hierarchy.l1dcaches.overallAvgMshrMissLatency::processor.cores.core.data 19722.689404                       # average overall mshr miss latency ((Tick/Count))
board.cache_hierarchy.l1dcaches.overallAvgMshrMissLatency::total 17715.281368                       # average overall mshr miss latency ((Tick/Count))
board.cache_hierarchy.l1dcaches.replacements        30852                       # number of replacements (Count)
board.cache_hierarchy.l1dcaches.HardPFReq.mshrMisses::cache_hierarchy.l1dcaches.prefetcher        18031                       # number of HardPFReq MSHR misses (Count)
board.cache_hierarchy.l1dcaches.HardPFReq.mshrMisses::total        18031                       # number of HardPFReq MSHR misses (Count)
board.cache_hierarchy.l1dcaches.HardPFReq.mshrMissLatency::cache_hierarchy.l1dcaches.prefetcher    294056623                       # number of HardPFReq MSHR miss ticks (Tick)
board.cache_hierarchy.l1dcaches.HardPFReq.mshrMissLatency::total    294056623                       # number of HardPFReq MSHR miss ticks (Tick)
board.cache_hierarchy.l1dcaches.HardPFReq.mshrMissRate::cache_hierarchy.l1dcaches.prefetcher          inf                       # mshr miss rate for HardPFReq accesses (Ratio)
board.cache_hierarchy.l1dcaches.HardPFReq.mshrMissRate::total          inf                       # mshr miss rate for HardPFReq accesses (Ratio)
board.cache_hierarchy.l1dcaches.HardPFReq.avgMshrMissLatency::cache_hierarchy.l1dcaches.prefetcher 16308.392380                       # average HardPFReq mshr miss latency ((Tick/Count))
board.cache_hierarchy.l1dcaches.HardPFReq.avgMshrMissLatency::total 16308.392380                       # average HardPFReq mshr miss latency ((Tick/Count))
board.cache_hierarchy.l1dcaches.LoadLockedReq.hits::processor.cores.core.data          561                       # number of LoadLockedReq hits (Count)
board.cache_hierarchy.l1dcaches.LoadLockedReq.hits::total          561                       # number of LoadLockedReq hits (Count)
board.cache_hierarchy.l1dcaches.LoadLockedReq.misses::processor.cores.core.data           10                       # number of LoadLockedReq misses (Count)
board.cache_hierarchy.l1dcaches.LoadLockedReq.misses::total           10                       # number of LoadLockedReq misses (Count)
board.cache_hierarchy.l1dcaches.LoadLockedReq.missLatency::processor.cores.core.data       197802                       # number of LoadLockedReq miss ticks (Tick)
board.cache_hierarchy.l1dcaches.LoadLockedReq.missLatency::total       197802                       # number of LoadLockedReq miss ticks (Tick)
board.cache_hierarchy.l1dcaches.LoadLockedReq.accesses::processor.cores.core.data          571                       # number of LoadLockedReq accesses(hits+misses) (Count)
board.cache_hierarchy.l1dcaches.LoadLockedReq.accesses::total          571                       # number of LoadLockedReq accesses(hits+misses) (Count)
board.cache_hierarchy.l1dcaches.LoadLockedReq.missRate::processor.cores.core.data     0.017513                       # miss rate for LoadLockedReq accesses (Ratio)
board.cache_hierarchy.l1dcaches.LoadLockedReq.missRate::total     0.017513                       # miss rate for LoadLockedReq accesses (Ratio)
board.cache_hierarchy.l1dcaches.LoadLockedReq.avgMissLatency::processor.cores.core.data 19780.200000                       # average LoadLockedReq miss latency ((Tick/Count))
board.cache_hierarchy.l1dcaches.LoadLockedReq.avgMissLatency::total 19780.200000                       # average LoadLockedReq miss latency ((Tick/Count))
board.cache_hierarchy.l1dcaches.LoadLockedReq.mshrHits::processor.cores.core.data            6                       # number of LoadLockedReq MSHR hits (Count)
board.cache_hierarchy.l1dcaches.LoadLockedReq.mshrHits::total            6                       # number of LoadLockedReq MSHR hits (Count)
board.cache_hierarchy.l1dcaches.LoadLockedReq.mshrMisses::processor.cores.core.data            4                       # number of LoadLockedReq MSHR misses (Count)
board.cache_hierarchy.l1dcaches.LoadLockedReq.mshrMisses::total            4                       # number of LoadLockedReq MSHR misses (Count)
board.cache_hierarchy.l1dcaches.LoadLockedReq.mshrMissLatency::processor.cores.core.data        70596                       # number of LoadLockedReq MSHR miss ticks (Tick)
board.cache_hierarchy.l1dcaches.LoadLockedReq.mshrMissLatency::total        70596                       # number of LoadLockedReq MSHR miss ticks (Tick)
board.cache_hierarchy.l1dcaches.LoadLockedReq.mshrMissRate::processor.cores.core.data     0.007005                       # mshr miss rate for LoadLockedReq accesses (Ratio)
board.cache_hierarchy.l1dcaches.LoadLockedReq.mshrMissRate::total     0.007005                       # mshr miss rate for LoadLockedReq accesses (Ratio)
board.cache_hierarchy.l1dcaches.LoadLockedReq.avgMshrMissLatency::processor.cores.core.data        17649                       # average LoadLockedReq mshr miss latency ((Tick/Count))
board.cache_hierarchy.l1dcaches.LoadLockedReq.avgMshrMissLatency::total        17649                       # average LoadLockedReq mshr miss latency ((Tick/Count))
board.cache_hierarchy.l1dcaches.ReadReq.hits::processor.cores.core.data      1910425                       # number of ReadReq hits (Count)
board.cache_hierarchy.l1dcaches.ReadReq.hits::total      1910425                       # number of ReadReq hits (Count)
board.cache_hierarchy.l1dcaches.ReadReq.misses::processor.cores.core.data        20772                       # number of ReadReq misses (Count)
board.cache_hierarchy.l1dcaches.ReadReq.misses::total        20772                       # number of ReadReq misses (Count)
board.cache_hierarchy.l1dcaches.ReadReq.missLatency::processor.cores.core.data    495651408                       # number of ReadReq miss ticks (Tick)
board.cache_hierarchy.l1dcaches.ReadReq.missLatency::total    495651408                       # number of ReadReq miss ticks (Tick)
board.cache_hierarchy.l1dcaches.ReadReq.accesses::processor.cores.core.data      1931197                       # number of ReadReq accesses(hits+misses) (Count)
board.cache_hierarchy.l1dcaches.ReadReq.accesses::total      1931197                       # number of ReadReq accesses(hits+misses) (Count)
board.cache_hierarchy.l1dcaches.ReadReq.missRate::processor.cores.core.data     0.010756                       # miss rate for ReadReq accesses (Ratio)
board.cache_hierarchy.l1dcaches.ReadReq.missRate::total     0.010756                       # miss rate for ReadReq accesses (Ratio)
board.cache_hierarchy.l1dcaches.ReadReq.avgMissLatency::processor.cores.core.data 23861.515887                       # average ReadReq miss latency ((Tick/Count))
board.cache_hierarchy.l1dcaches.ReadReq.avgMissLatency::total 23861.515887                       # average ReadReq miss latency ((Tick/Count))
board.cache_hierarchy.l1dcaches.ReadReq.mshrHits::processor.cores.core.data        16821                       # number of ReadReq MSHR hits (Count)
board.cache_hierarchy.l1dcaches.ReadReq.mshrHits::total        16821                       # number of ReadReq MSHR hits (Count)
board.cache_hierarchy.l1dcaches.ReadReq.mshrMisses::processor.cores.core.data         3951                       # number of ReadReq MSHR misses (Count)
board.cache_hierarchy.l1dcaches.ReadReq.mshrMisses::total         3951                       # number of ReadReq MSHR misses (Count)
board.cache_hierarchy.l1dcaches.ReadReq.mshrMissLatency::processor.cores.core.data     53229828                       # number of ReadReq MSHR miss ticks (Tick)
board.cache_hierarchy.l1dcaches.ReadReq.mshrMissLatency::total     53229828                       # number of ReadReq MSHR miss ticks (Tick)
board.cache_hierarchy.l1dcaches.ReadReq.mshrMissRate::processor.cores.core.data     0.002046                       # mshr miss rate for ReadReq accesses (Ratio)
board.cache_hierarchy.l1dcaches.ReadReq.mshrMissRate::total     0.002046                       # mshr miss rate for ReadReq accesses (Ratio)
board.cache_hierarchy.l1dcaches.ReadReq.avgMshrMissLatency::processor.cores.core.data 13472.495065                       # average ReadReq mshr miss latency ((Tick/Count))
board.cache_hierarchy.l1dcaches.ReadReq.avgMshrMissLatency::total 13472.495065                       # average ReadReq mshr miss latency ((Tick/Count))
board.cache_hierarchy.l1dcaches.StoreCondReq.hits::processor.cores.core.data          537                       # number of StoreCondReq hits (Count)
board.cache_hierarchy.l1dcaches.StoreCondReq.hits::total          537                       # number of StoreCondReq hits (Count)
board.cache_hierarchy.l1dcaches.StoreCondReq.accesses::processor.cores.core.data          537                       # number of StoreCondReq accesses(hits+misses) (Count)
board.cache_hierarchy.l1dcaches.StoreCondReq.accesses::total          537                       # number of StoreCondReq accesses(hits+misses) (Count)
board.cache_hierarchy.l1dcaches.SwapReq.hits::processor.cores.core.data        64914                       # number of SwapReq hits (Count)
board.cache_hierarchy.l1dcaches.SwapReq.hits::total        64914                       # number of SwapReq hits (Count)
board.cache_hierarchy.l1dcaches.SwapReq.misses::processor.cores.core.data          692                       # number of SwapReq misses (Count)
board.cache_hierarchy.l1dcaches.SwapReq.misses::total          692                       # number of SwapReq misses (Count)
board.cache_hierarchy.l1dcaches.SwapReq.missLatency::processor.cores.core.data      2156952                       # number of SwapReq miss ticks (Tick)
board.cache_hierarchy.l1dcaches.SwapReq.missLatency::total      2156952                       # number of SwapReq miss ticks (Tick)
board.cache_hierarchy.l1dcaches.SwapReq.accesses::processor.cores.core.data        65606                       # number of SwapReq accesses(hits+misses) (Count)
board.cache_hierarchy.l1dcaches.SwapReq.accesses::total        65606                       # number of SwapReq accesses(hits+misses) (Count)
board.cache_hierarchy.l1dcaches.SwapReq.missRate::processor.cores.core.data     0.010548                       # miss rate for SwapReq accesses (Ratio)
board.cache_hierarchy.l1dcaches.SwapReq.missRate::total     0.010548                       # miss rate for SwapReq accesses (Ratio)
board.cache_hierarchy.l1dcaches.SwapReq.avgMissLatency::processor.cores.core.data  3116.982659                       # average SwapReq miss latency ((Tick/Count))
board.cache_hierarchy.l1dcaches.SwapReq.avgMissLatency::total  3116.982659                       # average SwapReq miss latency ((Tick/Count))
board.cache_hierarchy.l1dcaches.SwapReq.mshrMisses::processor.cores.core.data          692                       # number of SwapReq MSHR misses (Count)
board.cache_hierarchy.l1dcaches.SwapReq.mshrMisses::total          692                       # number of SwapReq MSHR misses (Count)
board.cache_hierarchy.l1dcaches.SwapReq.mshrMissLatency::processor.cores.core.data      2003328                       # number of SwapReq MSHR miss ticks (Tick)
board.cache_hierarchy.l1dcaches.SwapReq.mshrMissLatency::total      2003328                       # number of SwapReq MSHR miss ticks (Tick)
board.cache_hierarchy.l1dcaches.SwapReq.mshrMissRate::processor.cores.core.data     0.010548                       # mshr miss rate for SwapReq accesses (Ratio)
board.cache_hierarchy.l1dcaches.SwapReq.mshrMissRate::total     0.010548                       # mshr miss rate for SwapReq accesses (Ratio)
board.cache_hierarchy.l1dcaches.SwapReq.avgMshrMissLatency::processor.cores.core.data  2894.982659                       # average SwapReq mshr miss latency ((Tick/Count))
board.cache_hierarchy.l1dcaches.SwapReq.avgMshrMissLatency::total  2894.982659                       # average SwapReq mshr miss latency ((Tick/Count))
board.cache_hierarchy.l1dcaches.WriteReq.hits::processor.cores.core.data       535538                       # number of WriteReq hits (Count)
board.cache_hierarchy.l1dcaches.WriteReq.hits::total       535538                       # number of WriteReq hits (Count)
board.cache_hierarchy.l1dcaches.WriteReq.misses::processor.cores.core.data        14944                       # number of WriteReq misses (Count)
board.cache_hierarchy.l1dcaches.WriteReq.misses::total        14944                       # number of WriteReq misses (Count)
board.cache_hierarchy.l1dcaches.WriteReq.missLatency::processor.cores.core.data    486803598                       # number of WriteReq miss ticks (Tick)
board.cache_hierarchy.l1dcaches.WriteReq.missLatency::total    486803598                       # number of WriteReq miss ticks (Tick)
board.cache_hierarchy.l1dcaches.WriteReq.accesses::processor.cores.core.data       550482                       # number of WriteReq accesses(hits+misses) (Count)
board.cache_hierarchy.l1dcaches.WriteReq.accesses::total       550482                       # number of WriteReq accesses(hits+misses) (Count)
board.cache_hierarchy.l1dcaches.WriteReq.missRate::processor.cores.core.data     0.027147                       # miss rate for WriteReq accesses (Ratio)
board.cache_hierarchy.l1dcaches.WriteReq.missRate::total     0.027147                       # miss rate for WriteReq accesses (Ratio)
board.cache_hierarchy.l1dcaches.WriteReq.avgMissLatency::processor.cores.core.data 32575.187232                       # average WriteReq miss latency ((Tick/Count))
board.cache_hierarchy.l1dcaches.WriteReq.avgMissLatency::total 32575.187232                       # average WriteReq miss latency ((Tick/Count))
board.cache_hierarchy.l1dcaches.WriteReq.mshrHits::processor.cores.core.data         6258                       # number of WriteReq MSHR hits (Count)
board.cache_hierarchy.l1dcaches.WriteReq.mshrHits::total         6258                       # number of WriteReq MSHR hits (Count)
board.cache_hierarchy.l1dcaches.WriteReq.mshrMisses::processor.cores.core.data         8686                       # number of WriteReq MSHR misses (Count)
board.cache_hierarchy.l1dcaches.WriteReq.mshrMisses::total         8686                       # number of WriteReq MSHR misses (Count)
board.cache_hierarchy.l1dcaches.WriteReq.mshrMissLatency::processor.cores.core.data    196005798                       # number of WriteReq MSHR miss ticks (Tick)
board.cache_hierarchy.l1dcaches.WriteReq.mshrMissLatency::total    196005798                       # number of WriteReq MSHR miss ticks (Tick)
board.cache_hierarchy.l1dcaches.WriteReq.mshrMissRate::processor.cores.core.data     0.015779                       # mshr miss rate for WriteReq accesses (Ratio)
board.cache_hierarchy.l1dcaches.WriteReq.mshrMissRate::total     0.015779                       # mshr miss rate for WriteReq accesses (Ratio)
board.cache_hierarchy.l1dcaches.WriteReq.avgMshrMissLatency::processor.cores.core.data 22565.714713                       # average WriteReq mshr miss latency ((Tick/Count))
board.cache_hierarchy.l1dcaches.WriteReq.avgMshrMissLatency::total 22565.714713                       # average WriteReq mshr miss latency ((Tick/Count))
board.cache_hierarchy.l1dcaches.power_state.pwrStateResidencyTicks::UNDEFINED   1882547790                       # Cumulative time (in ticks) in various power states (Tick)
board.cache_hierarchy.l1dcaches.prefetcher.demandMshrMisses        12637                       # demands not covered by prefetchs (Count)
board.cache_hierarchy.l1dcaches.prefetcher.pfIssued        63099                       # number of hwpf issued (Count)
board.cache_hierarchy.l1dcaches.prefetcher.pfUnused          686                       # number of HardPF blocks evicted w/o reference (Count)
board.cache_hierarchy.l1dcaches.prefetcher.pfUseful        15847                       # number of useful prefetch (Count)
board.cache_hierarchy.l1dcaches.prefetcher.pfUsefulButMiss            0                       # number of hit on prefetch but cache block is not in an usable state (Count)
board.cache_hierarchy.l1dcaches.prefetcher.accuracy     0.251145                       # accuracy of the prefetcher (Count)
board.cache_hierarchy.l1dcaches.prefetcher.coverage     0.556347                       # coverage brought by this prefetcher (Count)
board.cache_hierarchy.l1dcaches.prefetcher.pfHitInCache        38232                       # number of prefetches hitting in cache (Count)
board.cache_hierarchy.l1dcaches.prefetcher.pfHitInMSHR         6836                       # number of prefetches hitting in a MSHR (Count)
board.cache_hierarchy.l1dcaches.prefetcher.pfHitInWB            0                       # number of prefetches hit in the Write Buffer (Count)
board.cache_hierarchy.l1dcaches.prefetcher.pfLate        45068                       # number of late prefetches (hitting in cache, MSHR or WB) (Count)
board.cache_hierarchy.l1dcaches.prefetcher.pfIdentified        67822                       # number of prefetch candidates identified (Count)
board.cache_hierarchy.l1dcaches.prefetcher.pfBufferHit         3627                       # number of redundant prefetches already in prefetch queue (Count)
board.cache_hierarchy.l1dcaches.prefetcher.pfInCache            0                       # number of redundant prefetches already in cache/mshr dropped (Count)
board.cache_hierarchy.l1dcaches.prefetcher.pfRemovedDemand          186                       # number of prefetches dropped due to a demand for the same address (Count)
board.cache_hierarchy.l1dcaches.prefetcher.pfRemovedFull            0                       # number of prefetches dropped due to prefetch queue size (Count)
board.cache_hierarchy.l1dcaches.prefetcher.pfSpanPage         3434                       # number of prefetches that crossed the page (Count)
board.cache_hierarchy.l1dcaches.prefetcher.pfUsefulSpanPage         2286                       # number of prefetches that is useful and crossed the page (Count)
board.cache_hierarchy.l1dcaches.prefetcher.power_state.pwrStateResidencyTicks::UNDEFINED   1882547790                       # Cumulative time (in ticks) in various power states (Tick)
board.cache_hierarchy.l1dcaches.tags.tagsInUse   507.828812                       # Average ticks per tags in use ((Tick/Count))
board.cache_hierarchy.l1dcaches.tags.totalRefs      2543339                       # Total number of references to valid blocks. (Count)
board.cache_hierarchy.l1dcaches.tags.sampledRefs        31364                       # Sample count of references to valid blocks. (Count)
board.cache_hierarchy.l1dcaches.tags.avgRefs    81.091028                       # Average number of references to valid blocks. ((Count/Count))
board.cache_hierarchy.l1dcaches.tags.warmupTick       188922                       # The tick when the warmup percentage was hit. (Tick)
board.cache_hierarchy.l1dcaches.tags.occupancies::cache_hierarchy.l1dcaches.prefetcher   319.861017                       # Average occupied blocks per tick, per requestor ((Count/Tick))
board.cache_hierarchy.l1dcaches.tags.occupancies::processor.cores.core.data   187.967795                       # Average occupied blocks per tick, per requestor ((Count/Tick))
board.cache_hierarchy.l1dcaches.tags.avgOccs::cache_hierarchy.l1dcaches.prefetcher     0.624729                       # Average percentage of cache occupancy ((Ratio/Tick))
board.cache_hierarchy.l1dcaches.tags.avgOccs::processor.cores.core.data     0.367125                       # Average percentage of cache occupancy ((Ratio/Tick))
board.cache_hierarchy.l1dcaches.tags.avgOccs::total     0.991853                       # Average percentage of cache occupancy ((Ratio/Tick))
board.cache_hierarchy.l1dcaches.tags.occupanciesTaskId::1022          178                       # Occupied blocks per task id (Count)
board.cache_hierarchy.l1dcaches.tags.occupanciesTaskId::1024          334                       # Occupied blocks per task id (Count)
board.cache_hierarchy.l1dcaches.tags.ageTaskId_1022::0          160                       # Occupied blocks per task id, per block age (Count)
board.cache_hierarchy.l1dcaches.tags.ageTaskId_1022::1           18                       # Occupied blocks per task id, per block age (Count)
board.cache_hierarchy.l1dcaches.tags.ageTaskId_1024::0          324                       # Occupied blocks per task id, per block age (Count)
board.cache_hierarchy.l1dcaches.tags.ageTaskId_1024::1            8                       # Occupied blocks per task id, per block age (Count)
board.cache_hierarchy.l1dcaches.tags.ageTaskId_1024::2            2                       # Occupied blocks per task id, per block age (Count)
board.cache_hierarchy.l1dcaches.tags.ratioOccsTaskId::1022     0.347656                       # Ratio of occupied blocks and all blocks, per task id (Ratio)
board.cache_hierarchy.l1dcaches.tags.ratioOccsTaskId::1024     0.652344                       # Ratio of occupied blocks and all blocks, per task id (Ratio)
board.cache_hierarchy.l1dcaches.tags.tagAccesses     20418508                       # Number of tag accesses (Count)
board.cache_hierarchy.l1dcaches.tags.dataAccesses     20418508                       # Number of data accesses (Count)
board.cache_hierarchy.l1dcaches.tags.power_state.pwrStateResidencyTicks::UNDEFINED   1882547790                       # Cumulative time (in ticks) in various power states (Tick)
board.cache_hierarchy.l1icaches.demandHits::processor.cores.core.inst      2513490                       # number of demand (read+write) hits (Count)
board.cache_hierarchy.l1icaches.demandHits::total      2513490                       # number of demand (read+write) hits (Count)
board.cache_hierarchy.l1icaches.overallHits::processor.cores.core.inst      2513490                       # number of overall hits (Count)
board.cache_hierarchy.l1icaches.overallHits::total      2513490                       # number of overall hits (Count)
board.cache_hierarchy.l1icaches.demandMisses::processor.cores.core.inst         2646                       # number of demand (read+write) misses (Count)
board.cache_hierarchy.l1icaches.demandMisses::total         2646                       # number of demand (read+write) misses (Count)
board.cache_hierarchy.l1icaches.overallMisses::processor.cores.core.inst         2646                       # number of overall misses (Count)
board.cache_hierarchy.l1icaches.overallMisses::total         2646                       # number of overall misses (Count)
board.cache_hierarchy.l1icaches.demandMissLatency::processor.cores.core.inst    142566624                       # number of demand (read+write) miss ticks (Tick)
board.cache_hierarchy.l1icaches.demandMissLatency::total    142566624                       # number of demand (read+write) miss ticks (Tick)
board.cache_hierarchy.l1icaches.overallMissLatency::processor.cores.core.inst    142566624                       # number of overall miss ticks (Tick)
board.cache_hierarchy.l1icaches.overallMissLatency::total    142566624                       # number of overall miss ticks (Tick)
board.cache_hierarchy.l1icaches.demandAccesses::processor.cores.core.inst      2516136                       # number of demand (read+write) accesses (Count)
board.cache_hierarchy.l1icaches.demandAccesses::total      2516136                       # number of demand (read+write) accesses (Count)
board.cache_hierarchy.l1icaches.overallAccesses::processor.cores.core.inst      2516136                       # number of overall (read+write) accesses (Count)
board.cache_hierarchy.l1icaches.overallAccesses::total      2516136                       # number of overall (read+write) accesses (Count)
board.cache_hierarchy.l1icaches.demandMissRate::processor.cores.core.inst     0.001052                       # miss rate for demand accesses (Ratio)
board.cache_hierarchy.l1icaches.demandMissRate::total     0.001052                       # miss rate for demand accesses (Ratio)
board.cache_hierarchy.l1icaches.overallMissRate::processor.cores.core.inst     0.001052                       # miss rate for overall accesses (Ratio)
board.cache_hierarchy.l1icaches.overallMissRate::total     0.001052                       # miss rate for overall accesses (Ratio)
board.cache_hierarchy.l1icaches.demandAvgMissLatency::processor.cores.core.inst 53880.054422                       # average overall miss latency in ticks ((Tick/Count))
board.cache_hierarchy.l1icaches.demandAvgMissLatency::total 53880.054422                       # average overall miss latency in ticks ((Tick/Count))
board.cache_hierarchy.l1icaches.overallAvgMissLatency::processor.cores.core.inst 53880.054422                       # average overall miss latency ((Tick/Count))
board.cache_hierarchy.l1icaches.overallAvgMissLatency::total 53880.054422                       # average overall miss latency ((Tick/Count))
board.cache_hierarchy.l1icaches.blockedCycles::no_mshrs            0                       # number of cycles access was blocked (Cycle)
board.cache_hierarchy.l1icaches.blockedCycles::no_wbuffers            0                       # number of cycles access was blocked (Cycle)
board.cache_hierarchy.l1icaches.blockedCycles::no_targets            0                       # number of cycles access was blocked (Cycle)
board.cache_hierarchy.l1icaches.blockedCauses::no_mshrs            0                       # number of times access was blocked (Count)
board.cache_hierarchy.l1icaches.blockedCauses::no_wbuffers            0                       # number of times access was blocked (Count)
board.cache_hierarchy.l1icaches.blockedCauses::no_targets            0                       # number of times access was blocked (Count)
board.cache_hierarchy.l1icaches.avgBlocked::no_mshrs          nan                       # average number of cycles each access was blocked ((Cycle/Count))
board.cache_hierarchy.l1icaches.avgBlocked::no_wbuffers          nan                       # average number of cycles each access was blocked ((Cycle/Count))
board.cache_hierarchy.l1icaches.avgBlocked::no_targets          nan                       # average number of cycles each access was blocked ((Cycle/Count))
board.cache_hierarchy.l1icaches.demandMshrHits::processor.cores.core.inst          703                       # number of demand (read+write) MSHR hits (Count)
board.cache_hierarchy.l1icaches.demandMshrHits::total          703                       # number of demand (read+write) MSHR hits (Count)
board.cache_hierarchy.l1icaches.overallMshrHits::processor.cores.core.inst          703                       # number of overall MSHR hits (Count)
board.cache_hierarchy.l1icaches.overallMshrHits::total          703                       # number of overall MSHR hits (Count)
board.cache_hierarchy.l1icaches.demandMshrMisses::processor.cores.core.inst         1943                       # number of demand (read+write) MSHR misses (Count)
board.cache_hierarchy.l1icaches.demandMshrMisses::total         1943                       # number of demand (read+write) MSHR misses (Count)
board.cache_hierarchy.l1icaches.overallMshrMisses::processor.cores.core.inst         1943                       # number of overall MSHR misses (Count)
board.cache_hierarchy.l1icaches.overallMshrMisses::total         1943                       # number of overall MSHR misses (Count)
board.cache_hierarchy.l1icaches.demandMshrMissLatency::processor.cores.core.inst    106249866                       # number of demand (read+write) MSHR miss ticks (Tick)
board.cache_hierarchy.l1icaches.demandMshrMissLatency::total    106249866                       # number of demand (read+write) MSHR miss ticks (Tick)
board.cache_hierarchy.l1icaches.overallMshrMissLatency::processor.cores.core.inst    106249866                       # number of overall MSHR miss ticks (Tick)
board.cache_hierarchy.l1icaches.overallMshrMissLatency::total    106249866                       # number of overall MSHR miss ticks (Tick)
board.cache_hierarchy.l1icaches.demandMshrMissRate::processor.cores.core.inst     0.000772                       # mshr miss ratio for demand accesses (Ratio)
board.cache_hierarchy.l1icaches.demandMshrMissRate::total     0.000772                       # mshr miss ratio for demand accesses (Ratio)
board.cache_hierarchy.l1icaches.overallMshrMissRate::processor.cores.core.inst     0.000772                       # mshr miss ratio for overall accesses (Ratio)
board.cache_hierarchy.l1icaches.overallMshrMissRate::total     0.000772                       # mshr miss ratio for overall accesses (Ratio)
board.cache_hierarchy.l1icaches.demandAvgMshrMissLatency::processor.cores.core.inst 54683.410190                       # average overall mshr miss latency ((Tick/Count))
board.cache_hierarchy.l1icaches.demandAvgMshrMissLatency::total 54683.410190                       # average overall mshr miss latency ((Tick/Count))
board.cache_hierarchy.l1icaches.overallAvgMshrMissLatency::processor.cores.core.inst 54683.410190                       # average overall mshr miss latency ((Tick/Count))
board.cache_hierarchy.l1icaches.overallAvgMshrMissLatency::total 54683.410190                       # average overall mshr miss latency ((Tick/Count))
board.cache_hierarchy.l1icaches.replacements         1431                       # number of replacements (Count)
board.cache_hierarchy.l1icaches.ReadReq.hits::processor.cores.core.inst      2513490                       # number of ReadReq hits (Count)
board.cache_hierarchy.l1icaches.ReadReq.hits::total      2513490                       # number of ReadReq hits (Count)
board.cache_hierarchy.l1icaches.ReadReq.misses::processor.cores.core.inst         2646                       # number of ReadReq misses (Count)
board.cache_hierarchy.l1icaches.ReadReq.misses::total         2646                       # number of ReadReq misses (Count)
board.cache_hierarchy.l1icaches.ReadReq.missLatency::processor.cores.core.inst    142566624                       # number of ReadReq miss ticks (Tick)
board.cache_hierarchy.l1icaches.ReadReq.missLatency::total    142566624                       # number of ReadReq miss ticks (Tick)
board.cache_hierarchy.l1icaches.ReadReq.accesses::processor.cores.core.inst      2516136                       # number of ReadReq accesses(hits+misses) (Count)
board.cache_hierarchy.l1icaches.ReadReq.accesses::total      2516136                       # number of ReadReq accesses(hits+misses) (Count)
board.cache_hierarchy.l1icaches.ReadReq.missRate::processor.cores.core.inst     0.001052                       # miss rate for ReadReq accesses (Ratio)
board.cache_hierarchy.l1icaches.ReadReq.missRate::total     0.001052                       # miss rate for ReadReq accesses (Ratio)
board.cache_hierarchy.l1icaches.ReadReq.avgMissLatency::processor.cores.core.inst 53880.054422                       # average ReadReq miss latency ((Tick/Count))
board.cache_hierarchy.l1icaches.ReadReq.avgMissLatency::total 53880.054422                       # average ReadReq miss latency ((Tick/Count))
board.cache_hierarchy.l1icaches.ReadReq.mshrHits::processor.cores.core.inst          703                       # number of ReadReq MSHR hits (Count)
board.cache_hierarchy.l1icaches.ReadReq.mshrHits::total          703                       # number of ReadReq MSHR hits (Count)
board.cache_hierarchy.l1icaches.ReadReq.mshrMisses::processor.cores.core.inst         1943                       # number of ReadReq MSHR misses (Count)
board.cache_hierarchy.l1icaches.ReadReq.mshrMisses::total         1943                       # number of ReadReq MSHR misses (Count)
board.cache_hierarchy.l1icaches.ReadReq.mshrMissLatency::processor.cores.core.inst    106249866                       # number of ReadReq MSHR miss ticks (Tick)
board.cache_hierarchy.l1icaches.ReadReq.mshrMissLatency::total    106249866                       # number of ReadReq MSHR miss ticks (Tick)
board.cache_hierarchy.l1icaches.ReadReq.mshrMissRate::processor.cores.core.inst     0.000772                       # mshr miss rate for ReadReq accesses (Ratio)
board.cache_hierarchy.l1icaches.ReadReq.mshrMissRate::total     0.000772                       # mshr miss rate for ReadReq accesses (Ratio)
board.cache_hierarchy.l1icaches.ReadReq.avgMshrMissLatency::processor.cores.core.inst 54683.410190                       # average ReadReq mshr miss latency ((Tick/Count))
board.cache_hierarchy.l1icaches.ReadReq.avgMshrMissLatency::total 54683.410190                       # average ReadReq mshr miss latency ((Tick/Count))
board.cache_hierarchy.l1icaches.power_state.pwrStateResidencyTicks::UNDEFINED   1882547790                       # Cumulative time (in ticks) in various power states (Tick)
board.cache_hierarchy.l1icaches.prefetcher.demandMshrMisses         1943                       # demands not covered by prefetchs (Count)
board.cache_hierarchy.l1icaches.prefetcher.pfIssued            0                       # number of hwpf issued (Count)
board.cache_hierarchy.l1icaches.prefetcher.pfUseful            0                       # number of useful prefetch (Count)
board.cache_hierarchy.l1icaches.prefetcher.pfUsefulButMiss            0                       # number of hit on prefetch but cache block is not in an usable state (Count)
board.cache_hierarchy.l1icaches.prefetcher.accuracy          nan                       # accuracy of the prefetcher (Count)
board.cache_hierarchy.l1icaches.prefetcher.coverage            0                       # coverage brought by this prefetcher (Count)
board.cache_hierarchy.l1icaches.prefetcher.pfHitInCache            0                       # number of prefetches hitting in cache (Count)
board.cache_hierarchy.l1icaches.prefetcher.pfHitInMSHR            0                       # number of prefetches hitting in a MSHR (Count)
board.cache_hierarchy.l1icaches.prefetcher.pfHitInWB            0                       # number of prefetches hit in the Write Buffer (Count)
board.cache_hierarchy.l1icaches.prefetcher.pfLate            0                       # number of late prefetches (hitting in cache, MSHR or WB) (Count)
board.cache_hierarchy.l1icaches.prefetcher.pfIdentified            0                       # number of prefetch candidates identified (Count)
board.cache_hierarchy.l1icaches.prefetcher.pfBufferHit            0                       # number of redundant prefetches already in prefetch queue (Count)
board.cache_hierarchy.l1icaches.prefetcher.pfInCache            0                       # number of redundant prefetches already in cache/mshr dropped (Count)
board.cache_hierarchy.l1icaches.prefetcher.pfRemovedDemand            0                       # number of prefetches dropped due to a demand for the same address (Count)
board.cache_hierarchy.l1icaches.prefetcher.pfRemovedFull            0                       # number of prefetches dropped due to prefetch queue size (Count)
board.cache_hierarchy.l1icaches.prefetcher.pfSpanPage            0                       # number of prefetches that crossed the page (Count)
board.cache_hierarchy.l1icaches.prefetcher.pfUsefulSpanPage            0                       # number of prefetches that is useful and crossed the page (Count)
board.cache_hierarchy.l1icaches.prefetcher.power_state.pwrStateResidencyTicks::UNDEFINED   1882547790                       # Cumulative time (in ticks) in various power states (Tick)
board.cache_hierarchy.l1icaches.tags.tagsInUse   506.889461                       # Average ticks per tags in use ((Tick/Count))
board.cache_hierarchy.l1icaches.tags.totalRefs      2515433                       # Total number of references to valid blocks. (Count)
board.cache_hierarchy.l1icaches.tags.sampledRefs         1943                       # Sample count of references to valid blocks. (Count)
board.cache_hierarchy.l1icaches.tags.avgRefs  1294.612970                       # Average number of references to valid blocks. ((Count/Count))
board.cache_hierarchy.l1icaches.tags.warmupTick        70152                       # The tick when the warmup percentage was hit. (Tick)
board.cache_hierarchy.l1icaches.tags.occupancies::processor.cores.core.inst   506.889461                       # Average occupied blocks per tick, per requestor ((Count/Tick))
board.cache_hierarchy.l1icaches.tags.avgOccs::processor.cores.core.inst     0.990018                       # Average percentage of cache occupancy ((Ratio/Tick))
board.cache_hierarchy.l1icaches.tags.avgOccs::total     0.990018                       # Average percentage of cache occupancy ((Ratio/Tick))
board.cache_hierarchy.l1icaches.tags.occupanciesTaskId::1024          512                       # Occupied blocks per task id (Count)
board.cache_hierarchy.l1icaches.tags.ageTaskId_1024::0          221                       # Occupied blocks per task id, per block age (Count)
board.cache_hierarchy.l1icaches.tags.ageTaskId_1024::1           80                       # Occupied blocks per task id, per block age (Count)
board.cache_hierarchy.l1icaches.tags.ageTaskId_1024::2           37                       # Occupied blocks per task id, per block age (Count)
board.cache_hierarchy.l1icaches.tags.ageTaskId_1024::3          174                       # Occupied blocks per task id, per block age (Count)
board.cache_hierarchy.l1icaches.tags.ratioOccsTaskId::1024            1                       # Ratio of occupied blocks and all blocks, per task id (Ratio)
board.cache_hierarchy.l1icaches.tags.tagAccesses     20131031                       # Number of tag accesses (Count)
board.cache_hierarchy.l1icaches.tags.dataAccesses     20131031                       # Number of data accesses (Count)
board.cache_hierarchy.l1icaches.tags.power_state.pwrStateResidencyTicks::UNDEFINED   1882547790                       # Cumulative time (in ticks) in various power states (Tick)
board.cache_hierarchy.l2bus.transDist::ReadResp        23929                       # Transaction distribution (Count)
board.cache_hierarchy.l2bus.transDist::WritebackDirty        26949                       # Transaction distribution (Count)
board.cache_hierarchy.l2bus.transDist::CleanEvict         5335                       # Transaction distribution (Count)
board.cache_hierarchy.l2bus.transDist::HardPFReq         6105                       # Transaction distribution (Count)
board.cache_hierarchy.l2bus.transDist::ReadExReq         9378                       # Transaction distribution (Count)
board.cache_hierarchy.l2bus.transDist::ReadExResp         9378                       # Transaction distribution (Count)
board.cache_hierarchy.l2bus.transDist::ReadSharedReq        23929                       # Transaction distribution (Count)
board.cache_hierarchy.l2bus.pktCount_board.cache_hierarchy.l1icaches.mem_side_port::board.cache_hierarchy.l2cache.cpu_side_port         5317                       # Packet count per connected requestor and responder (Count)
board.cache_hierarchy.l2bus.pktCount_board.cache_hierarchy.l1dcaches.mem_side_port::board.cache_hierarchy.l2cache.cpu_side_port        93580                       # Packet count per connected requestor and responder (Count)
board.cache_hierarchy.l2bus.pktCount::total        98897                       # Packet count per connected requestor and responder (Count)
board.cache_hierarchy.l2bus.pktSize_board.cache_hierarchy.l1icaches.mem_side_port::board.cache_hierarchy.l2cache.cpu_side_port       124352                       # Cumulative packet size per connected requestor and responder (Byte)
board.cache_hierarchy.l2bus.pktSize_board.cache_hierarchy.l1dcaches.mem_side_port::board.cache_hierarchy.l2cache.cpu_side_port      3731968                       # Cumulative packet size per connected requestor and responder (Byte)
board.cache_hierarchy.l2bus.pktSize::total      3856320                       # Cumulative packet size per connected requestor and responder (Byte)
board.cache_hierarchy.l2bus.snoops               6106                       # Total snoops (Count)
board.cache_hierarchy.l2bus.snoopTraffic           64                       # Total snoop traffic (Byte)
board.cache_hierarchy.l2bus.snoopFanout::samples        39413                       # Request fanout histogram (Count)
board.cache_hierarchy.l2bus.snoopFanout::mean     0.000076                       # Request fanout histogram (Count)
board.cache_hierarchy.l2bus.snoopFanout::stdev     0.008724                       # Request fanout histogram (Count)
board.cache_hierarchy.l2bus.snoopFanout::underflows            0      0.00%      0.00% # Request fanout histogram (Count)
board.cache_hierarchy.l2bus.snoopFanout::0        39410     99.99%     99.99% # Request fanout histogram (Count)
board.cache_hierarchy.l2bus.snoopFanout::1            3      0.01%    100.00% # Request fanout histogram (Count)
board.cache_hierarchy.l2bus.snoopFanout::2            0      0.00%    100.00% # Request fanout histogram (Count)
board.cache_hierarchy.l2bus.snoopFanout::overflows            0      0.00%    100.00% # Request fanout histogram (Count)
board.cache_hierarchy.l2bus.snoopFanout::min_value            0                       # Request fanout histogram (Count)
board.cache_hierarchy.l2bus.snoopFanout::max_value            1                       # Request fanout histogram (Count)
board.cache_hierarchy.l2bus.snoopFanout::total        39413                       # Request fanout histogram (Count)
board.cache_hierarchy.l2bus.power_state.pwrStateResidencyTicks::UNDEFINED   1882547790                       # Cumulative time (in ticks) in various power states (Tick)
board.cache_hierarchy.l2bus.reqLayer0.occupancy     29383098                       # Layer occupancy (ticks) (Tick)
board.cache_hierarchy.l2bus.reqLayer0.utilization          0.0                       # Layer utilization (Ratio)
board.cache_hierarchy.l2bus.respLayer0.occupancy      1296690                       # Layer occupancy (ticks) (Tick)
board.cache_hierarchy.l2bus.respLayer0.utilization          0.0                       # Layer utilization (Ratio)
board.cache_hierarchy.l2bus.respLayer1.occupancy     20888424                       # Layer occupancy (ticks) (Tick)
board.cache_hierarchy.l2bus.respLayer1.utilization          0.0                       # Layer utilization (Ratio)
board.cache_hierarchy.l2bus.snoop_filter.totRequests        65590                       # Total number of requests made to the snoop filter. (Count)
board.cache_hierarchy.l2bus.snoop_filter.hitSingleRequests        32284                       # Number of requests hitting in the snoop filter with a single holder of the requested data. (Count)
board.cache_hierarchy.l2bus.snoop_filter.hitMultiRequests            1                       # Number of requests hitting in the snoop filter with multiple (>1) holders of the requested data. (Count)
board.cache_hierarchy.l2bus.snoop_filter.totSnoops            1                       # Total number of snoops made to the snoop filter. (Count)
board.cache_hierarchy.l2bus.snoop_filter.hitSingleSnoops            1                       # Number of snoops hitting in the snoop filter with a single holder of the requested data. (Count)
board.cache_hierarchy.l2bus.snoop_filter.hitMultiSnoops            0                       # Number of snoops hitting in the snoop filter with multiple (>1) holders of the requested data. (Count)
board.cache_hierarchy.l2cache.demandHits::cache_hierarchy.l1dcaches.prefetcher        14822                       # number of demand (read+write) hits (Count)
board.cache_hierarchy.l2cache.demandHits::processor.cores.core.inst          357                       # number of demand (read+write) hits (Count)
board.cache_hierarchy.l2cache.demandHits::processor.cores.core.data        10319                       # number of demand (read+write) hits (Count)
board.cache_hierarchy.l2cache.demandHits::total        25498                       # number of demand (read+write) hits (Count)
board.cache_hierarchy.l2cache.overallHits::cache_hierarchy.l1dcaches.prefetcher        14822                       # number of overall hits (Count)
board.cache_hierarchy.l2cache.overallHits::processor.cores.core.inst          357                       # number of overall hits (Count)
board.cache_hierarchy.l2cache.overallHits::processor.cores.core.data        10319                       # number of overall hits (Count)
board.cache_hierarchy.l2cache.overallHits::total        25498                       # number of overall hits (Count)
board.cache_hierarchy.l2cache.demandMisses::cache_hierarchy.l1dcaches.prefetcher         3209                       # number of demand (read+write) misses (Count)
board.cache_hierarchy.l2cache.demandMisses::processor.cores.core.inst         1586                       # number of demand (read+write) misses (Count)
board.cache_hierarchy.l2cache.demandMisses::processor.cores.core.data         3014                       # number of demand (read+write) misses (Count)
board.cache_hierarchy.l2cache.demandMisses::total         7809                       # number of demand (read+write) misses (Count)
board.cache_hierarchy.l2cache.overallMisses::cache_hierarchy.l1dcaches.prefetcher         3209                       # number of overall misses (Count)
board.cache_hierarchy.l2cache.overallMisses::processor.cores.core.inst         1586                       # number of overall misses (Count)
board.cache_hierarchy.l2cache.overallMisses::processor.cores.core.data         3014                       # number of overall misses (Count)
board.cache_hierarchy.l2cache.overallMisses::total         7809                       # number of overall misses (Count)
board.cache_hierarchy.l2cache.demandMissLatency::cache_hierarchy.l1dcaches.prefetcher    244347921                       # number of demand (read+write) miss ticks (Tick)
board.cache_hierarchy.l2cache.demandMissLatency::processor.cores.core.inst    104478528                       # number of demand (read+write) miss ticks (Tick)
board.cache_hierarchy.l2cache.demandMissLatency::processor.cores.core.data    219385506                       # number of demand (read+write) miss ticks (Tick)
board.cache_hierarchy.l2cache.demandMissLatency::total    568211955                       # number of demand (read+write) miss ticks (Tick)
board.cache_hierarchy.l2cache.overallMissLatency::cache_hierarchy.l1dcaches.prefetcher    244347921                       # number of overall miss ticks (Tick)
board.cache_hierarchy.l2cache.overallMissLatency::processor.cores.core.inst    104478528                       # number of overall miss ticks (Tick)
board.cache_hierarchy.l2cache.overallMissLatency::processor.cores.core.data    219385506                       # number of overall miss ticks (Tick)
board.cache_hierarchy.l2cache.overallMissLatency::total    568211955                       # number of overall miss ticks (Tick)
board.cache_hierarchy.l2cache.demandAccesses::cache_hierarchy.l1dcaches.prefetcher        18031                       # number of demand (read+write) accesses (Count)
board.cache_hierarchy.l2cache.demandAccesses::processor.cores.core.inst         1943                       # number of demand (read+write) accesses (Count)
board.cache_hierarchy.l2cache.demandAccesses::processor.cores.core.data        13333                       # number of demand (read+write) accesses (Count)
board.cache_hierarchy.l2cache.demandAccesses::total        33307                       # number of demand (read+write) accesses (Count)
board.cache_hierarchy.l2cache.overallAccesses::cache_hierarchy.l1dcaches.prefetcher        18031                       # number of overall (read+write) accesses (Count)
board.cache_hierarchy.l2cache.overallAccesses::processor.cores.core.inst         1943                       # number of overall (read+write) accesses (Count)
board.cache_hierarchy.l2cache.overallAccesses::processor.cores.core.data        13333                       # number of overall (read+write) accesses (Count)
board.cache_hierarchy.l2cache.overallAccesses::total        33307                       # number of overall (read+write) accesses (Count)
board.cache_hierarchy.l2cache.demandMissRate::cache_hierarchy.l1dcaches.prefetcher     0.177971                       # miss rate for demand accesses (Ratio)
board.cache_hierarchy.l2cache.demandMissRate::processor.cores.core.inst     0.816264                       # miss rate for demand accesses (Ratio)
board.cache_hierarchy.l2cache.demandMissRate::processor.cores.core.data     0.226056                       # miss rate for demand accesses (Ratio)
board.cache_hierarchy.l2cache.demandMissRate::total     0.234455                       # miss rate for demand accesses (Ratio)
board.cache_hierarchy.l2cache.overallMissRate::cache_hierarchy.l1dcaches.prefetcher     0.177971                       # miss rate for overall accesses (Ratio)
board.cache_hierarchy.l2cache.overallMissRate::processor.cores.core.inst     0.816264                       # miss rate for overall accesses (Ratio)
board.cache_hierarchy.l2cache.overallMissRate::processor.cores.core.data     0.226056                       # miss rate for overall accesses (Ratio)
board.cache_hierarchy.l2cache.overallMissRate::total     0.234455                       # miss rate for overall accesses (Ratio)
board.cache_hierarchy.l2cache.demandAvgMissLatency::cache_hierarchy.l1dcaches.prefetcher 76144.568713                       # average overall miss latency in ticks ((Tick/Count))
board.cache_hierarchy.l2cache.demandAvgMissLatency::processor.cores.core.inst 65875.490542                       # average overall miss latency in ticks ((Tick/Count))
board.cache_hierarchy.l2cache.demandAvgMissLatency::processor.cores.core.data 72788.820836                       # average overall miss latency in ticks ((Tick/Count))
board.cache_hierarchy.l2cache.demandAvgMissLatency::total 72763.728390                       # average overall miss latency in ticks ((Tick/Count))
board.cache_hierarchy.l2cache.overallAvgMissLatency::cache_hierarchy.l1dcaches.prefetcher 76144.568713                       # average overall miss latency ((Tick/Count))
board.cache_hierarchy.l2cache.overallAvgMissLatency::processor.cores.core.inst 65875.490542                       # average overall miss latency ((Tick/Count))
board.cache_hierarchy.l2cache.overallAvgMissLatency::processor.cores.core.data 72788.820836                       # average overall miss latency ((Tick/Count))
board.cache_hierarchy.l2cache.overallAvgMissLatency::total 72763.728390                       # average overall miss latency ((Tick/Count))
board.cache_hierarchy.l2cache.blockedCycles::no_mshrs            0                       # number of cycles access was blocked (Cycle)
board.cache_hierarchy.l2cache.blockedCycles::no_wbuffers            0                       # number of cycles access was blocked (Cycle)
board.cache_hierarchy.l2cache.blockedCycles::no_targets            0                       # number of cycles access was blocked (Cycle)
board.cache_hierarchy.l2cache.blockedCauses::no_mshrs            0                       # number of times access was blocked (Count)
board.cache_hierarchy.l2cache.blockedCauses::no_wbuffers            0                       # number of times access was blocked (Count)
board.cache_hierarchy.l2cache.blockedCauses::no_targets            0                       # number of times access was blocked (Count)
board.cache_hierarchy.l2cache.avgBlocked::no_mshrs          nan                       # average number of cycles each access was blocked ((Cycle/Count))
board.cache_hierarchy.l2cache.avgBlocked::no_wbuffers          nan                       # average number of cycles each access was blocked ((Cycle/Count))
board.cache_hierarchy.l2cache.avgBlocked::no_targets          nan                       # average number of cycles each access was blocked ((Cycle/Count))
board.cache_hierarchy.l2cache.writebacks::writebacks            1                       # number of writebacks (Count)
board.cache_hierarchy.l2cache.writebacks::total            1                       # number of writebacks (Count)
board.cache_hierarchy.l2cache.demandMshrHits::cache_hierarchy.l1dcaches.prefetcher         2869                       # number of demand (read+write) MSHR hits (Count)
board.cache_hierarchy.l2cache.demandMshrHits::processor.cores.core.data           68                       # number of demand (read+write) MSHR hits (Count)
board.cache_hierarchy.l2cache.demandMshrHits::total         2937                       # number of demand (read+write) MSHR hits (Count)
board.cache_hierarchy.l2cache.overallMshrHits::cache_hierarchy.l1dcaches.prefetcher         2869                       # number of overall MSHR hits (Count)
board.cache_hierarchy.l2cache.overallMshrHits::processor.cores.core.data           68                       # number of overall MSHR hits (Count)
board.cache_hierarchy.l2cache.overallMshrHits::total         2937                       # number of overall MSHR hits (Count)
board.cache_hierarchy.l2cache.demandMshrMisses::cache_hierarchy.l1dcaches.prefetcher          340                       # number of demand (read+write) MSHR misses (Count)
board.cache_hierarchy.l2cache.demandMshrMisses::processor.cores.core.inst         1586                       # number of demand (read+write) MSHR misses (Count)
board.cache_hierarchy.l2cache.demandMshrMisses::processor.cores.core.data         2946                       # number of demand (read+write) MSHR misses (Count)
board.cache_hierarchy.l2cache.demandMshrMisses::total         4872                       # number of demand (read+write) MSHR misses (Count)
board.cache_hierarchy.l2cache.overallMshrMisses::cache_hierarchy.l1dcaches.prefetcher          340                       # number of overall MSHR misses (Count)
board.cache_hierarchy.l2cache.overallMshrMisses::cache_hierarchy.l2cache.prefetcher         5662                       # number of overall MSHR misses (Count)
board.cache_hierarchy.l2cache.overallMshrMisses::processor.cores.core.inst         1586                       # number of overall MSHR misses (Count)
board.cache_hierarchy.l2cache.overallMshrMisses::processor.cores.core.data         2946                       # number of overall MSHR misses (Count)
board.cache_hierarchy.l2cache.overallMshrMisses::total        10534                       # number of overall MSHR misses (Count)
board.cache_hierarchy.l2cache.demandMshrMissLatency::cache_hierarchy.l1dcaches.prefetcher     50196746                       # number of demand (read+write) MSHR miss ticks (Tick)
board.cache_hierarchy.l2cache.demandMshrMissLatency::processor.cores.core.inst    104126436                       # number of demand (read+write) MSHR miss ticks (Tick)
board.cache_hierarchy.l2cache.demandMshrMissLatency::processor.cores.core.data    216058614                       # number of demand (read+write) MSHR miss ticks (Tick)
board.cache_hierarchy.l2cache.demandMshrMissLatency::total    370381796                       # number of demand (read+write) MSHR miss ticks (Tick)
board.cache_hierarchy.l2cache.overallMshrMissLatency::cache_hierarchy.l1dcaches.prefetcher     50196746                       # number of overall MSHR miss ticks (Tick)
board.cache_hierarchy.l2cache.overallMshrMissLatency::cache_hierarchy.l2cache.prefetcher    565077719                       # number of overall MSHR miss ticks (Tick)
board.cache_hierarchy.l2cache.overallMshrMissLatency::processor.cores.core.inst    104126436                       # number of overall MSHR miss ticks (Tick)
board.cache_hierarchy.l2cache.overallMshrMissLatency::processor.cores.core.data    216058614                       # number of overall MSHR miss ticks (Tick)
board.cache_hierarchy.l2cache.overallMshrMissLatency::total    935459515                       # number of overall MSHR miss ticks (Tick)
board.cache_hierarchy.l2cache.demandMshrMissRate::cache_hierarchy.l1dcaches.prefetcher     0.018856                       # mshr miss ratio for demand accesses (Ratio)
board.cache_hierarchy.l2cache.demandMshrMissRate::processor.cores.core.inst     0.816264                       # mshr miss ratio for demand accesses (Ratio)
board.cache_hierarchy.l2cache.demandMshrMissRate::processor.cores.core.data     0.220956                       # mshr miss ratio for demand accesses (Ratio)
board.cache_hierarchy.l2cache.demandMshrMissRate::total     0.146276                       # mshr miss ratio for demand accesses (Ratio)
board.cache_hierarchy.l2cache.overallMshrMissRate::cache_hierarchy.l1dcaches.prefetcher     0.018856                       # mshr miss ratio for overall accesses (Ratio)
board.cache_hierarchy.l2cache.overallMshrMissRate::cache_hierarchy.l2cache.prefetcher          inf                       # mshr miss ratio for overall accesses (Ratio)
board.cache_hierarchy.l2cache.overallMshrMissRate::processor.cores.core.inst     0.816264                       # mshr miss ratio for overall accesses (Ratio)
board.cache_hierarchy.l2cache.overallMshrMissRate::processor.cores.core.data     0.220956                       # mshr miss ratio for overall accesses (Ratio)
board.cache_hierarchy.l2cache.overallMshrMissRate::total     0.316270                       # mshr miss ratio for overall accesses (Ratio)
board.cache_hierarchy.l2cache.demandAvgMshrMissLatency::cache_hierarchy.l1dcaches.prefetcher 147637.488235                       # average overall mshr miss latency ((Tick/Count))
board.cache_hierarchy.l2cache.demandAvgMshrMissLatency::processor.cores.core.inst 65653.490542                       # average overall mshr miss latency ((Tick/Count))
board.cache_hierarchy.l2cache.demandAvgMshrMissLatency::processor.cores.core.data 73339.651731                       # average overall mshr miss latency ((Tick/Count))
board.cache_hierarchy.l2cache.demandAvgMshrMissLatency::total 76022.536125                       # average overall mshr miss latency ((Tick/Count))
board.cache_hierarchy.l2cache.overallAvgMshrMissLatency::cache_hierarchy.l1dcaches.prefetcher 147637.488235                       # average overall mshr miss latency ((Tick/Count))
board.cache_hierarchy.l2cache.overallAvgMshrMissLatency::cache_hierarchy.l2cache.prefetcher 99801.787178                       # average overall mshr miss latency ((Tick/Count))
board.cache_hierarchy.l2cache.overallAvgMshrMissLatency::processor.cores.core.inst 65653.490542                       # average overall mshr miss latency ((Tick/Count))
board.cache_hierarchy.l2cache.overallAvgMshrMissLatency::processor.cores.core.data 73339.651731                       # average overall mshr miss latency ((Tick/Count))
board.cache_hierarchy.l2cache.overallAvgMshrMissLatency::total 88803.827131                       # average overall mshr miss latency ((Tick/Count))
board.cache_hierarchy.l2cache.replacements            1                       # number of replacements (Count)
board.cache_hierarchy.l2cache.HardPFReq.mshrMisses::cache_hierarchy.l2cache.prefetcher         5662                       # number of HardPFReq MSHR misses (Count)
board.cache_hierarchy.l2cache.HardPFReq.mshrMisses::total         5662                       # number of HardPFReq MSHR misses (Count)
board.cache_hierarchy.l2cache.HardPFReq.mshrMissLatency::cache_hierarchy.l2cache.prefetcher    565077719                       # number of HardPFReq MSHR miss ticks (Tick)
board.cache_hierarchy.l2cache.HardPFReq.mshrMissLatency::total    565077719                       # number of HardPFReq MSHR miss ticks (Tick)
board.cache_hierarchy.l2cache.HardPFReq.mshrMissRate::cache_hierarchy.l2cache.prefetcher          inf                       # mshr miss rate for HardPFReq accesses (Ratio)
board.cache_hierarchy.l2cache.HardPFReq.mshrMissRate::total          inf                       # mshr miss rate for HardPFReq accesses (Ratio)
board.cache_hierarchy.l2cache.HardPFReq.avgMshrMissLatency::cache_hierarchy.l2cache.prefetcher 99801.787178                       # average HardPFReq mshr miss latency ((Tick/Count))
board.cache_hierarchy.l2cache.HardPFReq.avgMshrMissLatency::total 99801.787178                       # average HardPFReq mshr miss latency ((Tick/Count))
board.cache_hierarchy.l2cache.ReadExReq.hits::processor.cores.core.data         6918                       # number of ReadExReq hits (Count)
board.cache_hierarchy.l2cache.ReadExReq.hits::total         6918                       # number of ReadExReq hits (Count)
board.cache_hierarchy.l2cache.ReadExReq.misses::processor.cores.core.data         2460                       # number of ReadExReq misses (Count)
board.cache_hierarchy.l2cache.ReadExReq.misses::total         2460                       # number of ReadExReq misses (Count)
board.cache_hierarchy.l2cache.ReadExReq.missLatency::processor.cores.core.data    176517084                       # number of ReadExReq miss ticks (Tick)
board.cache_hierarchy.l2cache.ReadExReq.missLatency::total    176517084                       # number of ReadExReq miss ticks (Tick)
board.cache_hierarchy.l2cache.ReadExReq.accesses::processor.cores.core.data         9378                       # number of ReadExReq accesses(hits+misses) (Count)
board.cache_hierarchy.l2cache.ReadExReq.accesses::total         9378                       # number of ReadExReq accesses(hits+misses) (Count)
board.cache_hierarchy.l2cache.ReadExReq.missRate::processor.cores.core.data     0.262316                       # miss rate for ReadExReq accesses (Ratio)
board.cache_hierarchy.l2cache.ReadExReq.missRate::total     0.262316                       # miss rate for ReadExReq accesses (Ratio)
board.cache_hierarchy.l2cache.ReadExReq.avgMissLatency::processor.cores.core.data 71754.912195                       # average ReadExReq miss latency ((Tick/Count))
board.cache_hierarchy.l2cache.ReadExReq.avgMissLatency::total 71754.912195                       # average ReadExReq miss latency ((Tick/Count))
board.cache_hierarchy.l2cache.ReadExReq.mshrHits::processor.cores.core.data            5                       # number of ReadExReq MSHR hits (Count)
board.cache_hierarchy.l2cache.ReadExReq.mshrHits::total            5                       # number of ReadExReq MSHR hits (Count)
board.cache_hierarchy.l2cache.ReadExReq.mshrMisses::processor.cores.core.data         2455                       # number of ReadExReq MSHR misses (Count)
board.cache_hierarchy.l2cache.ReadExReq.mshrMisses::total         2455                       # number of ReadExReq MSHR misses (Count)
board.cache_hierarchy.l2cache.ReadExReq.mshrMissLatency::processor.cores.core.data    175708116                       # number of ReadExReq MSHR miss ticks (Tick)
board.cache_hierarchy.l2cache.ReadExReq.mshrMissLatency::total    175708116                       # number of ReadExReq MSHR miss ticks (Tick)
board.cache_hierarchy.l2cache.ReadExReq.mshrMissRate::processor.cores.core.data     0.261783                       # mshr miss rate for ReadExReq accesses (Ratio)
board.cache_hierarchy.l2cache.ReadExReq.mshrMissRate::total     0.261783                       # mshr miss rate for ReadExReq accesses (Ratio)
board.cache_hierarchy.l2cache.ReadExReq.avgMshrMissLatency::processor.cores.core.data 71571.534012                       # average ReadExReq mshr miss latency ((Tick/Count))
board.cache_hierarchy.l2cache.ReadExReq.avgMshrMissLatency::total 71571.534012                       # average ReadExReq mshr miss latency ((Tick/Count))
board.cache_hierarchy.l2cache.ReadSharedReq.hits::cache_hierarchy.l1dcaches.prefetcher        14822                       # number of ReadSharedReq hits (Count)
board.cache_hierarchy.l2cache.ReadSharedReq.hits::processor.cores.core.inst          357                       # number of ReadSharedReq hits (Count)
board.cache_hierarchy.l2cache.ReadSharedReq.hits::processor.cores.core.data         3401                       # number of ReadSharedReq hits (Count)
board.cache_hierarchy.l2cache.ReadSharedReq.hits::total        18580                       # number of ReadSharedReq hits (Count)
board.cache_hierarchy.l2cache.ReadSharedReq.misses::cache_hierarchy.l1dcaches.prefetcher         3209                       # number of ReadSharedReq misses (Count)
board.cache_hierarchy.l2cache.ReadSharedReq.misses::processor.cores.core.inst         1586                       # number of ReadSharedReq misses (Count)
board.cache_hierarchy.l2cache.ReadSharedReq.misses::processor.cores.core.data          554                       # number of ReadSharedReq misses (Count)
board.cache_hierarchy.l2cache.ReadSharedReq.misses::total         5349                       # number of ReadSharedReq misses (Count)
board.cache_hierarchy.l2cache.ReadSharedReq.missLatency::cache_hierarchy.l1dcaches.prefetcher    244347921                       # number of ReadSharedReq miss ticks (Tick)
board.cache_hierarchy.l2cache.ReadSharedReq.missLatency::processor.cores.core.inst    104478528                       # number of ReadSharedReq miss ticks (Tick)
board.cache_hierarchy.l2cache.ReadSharedReq.missLatency::processor.cores.core.data     42868422                       # number of ReadSharedReq miss ticks (Tick)
board.cache_hierarchy.l2cache.ReadSharedReq.missLatency::total    391694871                       # number of ReadSharedReq miss ticks (Tick)
board.cache_hierarchy.l2cache.ReadSharedReq.accesses::cache_hierarchy.l1dcaches.prefetcher        18031                       # number of ReadSharedReq accesses(hits+misses) (Count)
board.cache_hierarchy.l2cache.ReadSharedReq.accesses::processor.cores.core.inst         1943                       # number of ReadSharedReq accesses(hits+misses) (Count)
board.cache_hierarchy.l2cache.ReadSharedReq.accesses::processor.cores.core.data         3955                       # number of ReadSharedReq accesses(hits+misses) (Count)
board.cache_hierarchy.l2cache.ReadSharedReq.accesses::total        23929                       # number of ReadSharedReq accesses(hits+misses) (Count)
board.cache_hierarchy.l2cache.ReadSharedReq.missRate::cache_hierarchy.l1dcaches.prefetcher     0.177971                       # miss rate for ReadSharedReq accesses (Ratio)
board.cache_hierarchy.l2cache.ReadSharedReq.missRate::processor.cores.core.inst     0.816264                       # miss rate for ReadSharedReq accesses (Ratio)
board.cache_hierarchy.l2cache.ReadSharedReq.missRate::processor.cores.core.data     0.140076                       # miss rate for ReadSharedReq accesses (Ratio)
board.cache_hierarchy.l2cache.ReadSharedReq.missRate::total     0.223536                       # miss rate for ReadSharedReq accesses (Ratio)
board.cache_hierarchy.l2cache.ReadSharedReq.avgMissLatency::cache_hierarchy.l1dcaches.prefetcher 76144.568713                       # average ReadSharedReq miss latency ((Tick/Count))
board.cache_hierarchy.l2cache.ReadSharedReq.avgMissLatency::processor.cores.core.inst 65875.490542                       # average ReadSharedReq miss latency ((Tick/Count))
board.cache_hierarchy.l2cache.ReadSharedReq.avgMissLatency::processor.cores.core.data 77379.823105                       # average ReadSharedReq miss latency ((Tick/Count))
board.cache_hierarchy.l2cache.ReadSharedReq.avgMissLatency::total 73227.681997                       # average ReadSharedReq miss latency ((Tick/Count))
board.cache_hierarchy.l2cache.ReadSharedReq.mshrHits::cache_hierarchy.l1dcaches.prefetcher         2869                       # number of ReadSharedReq MSHR hits (Count)
board.cache_hierarchy.l2cache.ReadSharedReq.mshrHits::processor.cores.core.data           63                       # number of ReadSharedReq MSHR hits (Count)
board.cache_hierarchy.l2cache.ReadSharedReq.mshrHits::total         2932                       # number of ReadSharedReq MSHR hits (Count)
board.cache_hierarchy.l2cache.ReadSharedReq.mshrMisses::cache_hierarchy.l1dcaches.prefetcher          340                       # number of ReadSharedReq MSHR misses (Count)
board.cache_hierarchy.l2cache.ReadSharedReq.mshrMisses::processor.cores.core.inst         1586                       # number of ReadSharedReq MSHR misses (Count)
board.cache_hierarchy.l2cache.ReadSharedReq.mshrMisses::processor.cores.core.data          491                       # number of ReadSharedReq MSHR misses (Count)
board.cache_hierarchy.l2cache.ReadSharedReq.mshrMisses::total         2417                       # number of ReadSharedReq MSHR misses (Count)
board.cache_hierarchy.l2cache.ReadSharedReq.mshrMissLatency::cache_hierarchy.l1dcaches.prefetcher     50196746                       # number of ReadSharedReq MSHR miss ticks (Tick)
board.cache_hierarchy.l2cache.ReadSharedReq.mshrMissLatency::processor.cores.core.inst    104126436                       # number of ReadSharedReq MSHR miss ticks (Tick)
board.cache_hierarchy.l2cache.ReadSharedReq.mshrMissLatency::processor.cores.core.data     40350498                       # number of ReadSharedReq MSHR miss ticks (Tick)
board.cache_hierarchy.l2cache.ReadSharedReq.mshrMissLatency::total    194673680                       # number of ReadSharedReq MSHR miss ticks (Tick)
board.cache_hierarchy.l2cache.ReadSharedReq.mshrMissRate::cache_hierarchy.l1dcaches.prefetcher     0.018856                       # mshr miss rate for ReadSharedReq accesses (Ratio)
board.cache_hierarchy.l2cache.ReadSharedReq.mshrMissRate::processor.cores.core.inst     0.816264                       # mshr miss rate for ReadSharedReq accesses (Ratio)
board.cache_hierarchy.l2cache.ReadSharedReq.mshrMissRate::processor.cores.core.data     0.124147                       # mshr miss rate for ReadSharedReq accesses (Ratio)
board.cache_hierarchy.l2cache.ReadSharedReq.mshrMissRate::total     0.101007                       # mshr miss rate for ReadSharedReq accesses (Ratio)
board.cache_hierarchy.l2cache.ReadSharedReq.avgMshrMissLatency::cache_hierarchy.l1dcaches.prefetcher 147637.488235                       # average ReadSharedReq mshr miss latency ((Tick/Count))
board.cache_hierarchy.l2cache.ReadSharedReq.avgMshrMissLatency::processor.cores.core.inst 65653.490542                       # average ReadSharedReq mshr miss latency ((Tick/Count))
board.cache_hierarchy.l2cache.ReadSharedReq.avgMshrMissLatency::processor.cores.core.data 82180.240326                       # average ReadSharedReq mshr miss latency ((Tick/Count))
[...]
board.processor.cores.core.ftq.occupancy::samples            0                       # Distribution of the FTQ occupation. (Count)
board.processor.cores.core.ftq.occupancy::mean          nan                       # Distribution of the FTQ occupation. (Count)
board.processor.cores.core.ftq.occupancy::stdev          nan                       # Distribution of the FTQ occupation. (Count)
board.processor.cores.core.ftq.occupancy::underflows            0                       # Distribution of the FTQ occupation. (Count)
board.processor.cores.core.ftq.occupancy::0-3            0                       # Distribution of the FTQ occupation. (Count)
board.processor.cores.core.ftq.occupancy::4-7            0                       # Distribution of the FTQ occupation. (Count)
board.processor.cores.core.ftq.occupancy::8            0                       # Distribution of the FTQ occupation. (Count)
board.processor.cores.core.ftq.occupancy::overflows            0                       # Distribution of the FTQ occupation. (Count)
board.processor.cores.core.ftq.occupancy::min_value            0                       # Distribution of the FTQ occupation. (Count)
board.processor.cores.core.ftq.occupancy::max_value            0                       # Distribution of the FTQ occupation. (Count)
board.processor.cores.core.ftq.occupancy::total            0                       # Distribution of the FTQ occupation. (Count)
board.processor.cores.core.iew.dispatchStatus::running      6492789     79.12%     79.12% # Number of cycles dispatch is running (Cycle)
board.processor.cores.core.iew.dispatchStatus::blocked      1364549     16.63%     95.74% # Number of cycles dispatch is blocked (Cycle)
board.processor.cores.core.iew.dispatchStatus::squashing       246726      3.01%     98.75% # Number of cycles dispatch is squashing (Cycle)
board.processor.cores.core.iew.dispatchStatus::unblocking       102511      1.25%    100.00% # Number of cycles dispatch is unblocking (Cycle)
board.processor.cores.core.iew.dispatchedInsts     20217286                       # Number of instructions dispatched to IQ (Count)
board.processor.cores.core.iew.dispSquashedInsts      1078614                       # Number of squashed instructions skipped by dispatch (Count)
board.processor.cores.core.iew.dispLoadInsts      2550888                       # Number of dispatched load instructions (Count)
board.processor.cores.core.iew.dispStoreInsts      1104454                       # Number of dispatched store instructions (Count)
board.processor.cores.core.iew.dispNonSpecInsts        66741                       # Number of dispatched non-speculative instructions (Count)
board.processor.cores.core.iew.iqFullEvents        21226                       # Number of times the IQ has become full, causing a stall (Count)
board.processor.cores.core.iew.lsqFullEvents         8692                       # Number of times the LSQ has become full, causing a stall (Count)
board.processor.cores.core.iew.memOrderViolationEvents          299                       # Number of memory order violations (Count)
board.processor.cores.core.iew.predictedTakenIncorrect       145145                       # Number of branches that were predicted taken incorrectly (Count)
board.processor.cores.core.iew.predictedNotTakenIncorrect       123680                       # Number of branches that were predicted not taken incorrectly (Count)
board.processor.cores.core.iew.branchMispredicts       268825                       # Number of branch mispredicts detected at execute (Count)
board.processor.cores.core.iew.instsToCommit     15732142                       # Cumulative count of insts sent to commit (Count)
board.processor.cores.core.iew.writebackCount     15730932                       # Cumulative count of insts written-back (Count)
board.processor.cores.core.iew.producerInst      9929141                       # Number of instructions producing a value (Count)
board.processor.cores.core.iew.consumerInst     14044064                       # Number of instructions consuming a value (Count)
board.processor.cores.core.iew.wbRate        1.855074                       # Insts written-back per cycle ((Count/Cycle))
board.processor.cores.core.iew.wbFanout      0.706999                       # Average fanout of values written-back ((Count/Count))
board.processor.cores.core.lsq0.forwLoads        62027                       # Number of loads that had data forwarded from stores (Count)
board.processor.cores.core.lsq0.squashedLoads      1061648                       # Number of loads squashed (Count)
board.processor.cores.core.lsq0.ignoredResponses        10316                       # Number of memory responses ignored because the instruction is squashed (Count)
board.processor.cores.core.lsq0.memOrderViolation          299                       # Number of memory ordering violations (Count)
board.processor.cores.core.lsq0.squashedStores       487829                       # Number of stores squashed (Count)
board.processor.cores.core.lsq0.rescheduledLoads           37                       # Number of loads that were rescheduled (Count)
board.processor.cores.core.lsq0.blockedByCache           13                       # Number of times an access to memory failed due to the cache being blocked (Count)
board.processor.cores.core.lsq0.loadToUse::samples      1489240                       # Distribution of cycle latency between the first time a load is issued and its completion (Cycle)
board.processor.cores.core.lsq0.loadToUse::mean     3.550053                       # Distribution of cycle latency between the first time a load is issued and its completion (Cycle)
board.processor.cores.core.lsq0.loadToUse::stdev    24.480102                       # Distribution of cycle latency between the first time a load is issued and its completion (Cycle)
board.processor.cores.core.lsq0.loadToUse::0-9      1474198     98.99%     98.99% # Distribution of cycle latency between the first time a load is issued and its completion (Cycle)
board.processor.cores.core.lsq0.loadToUse::10-19         5503      0.37%     99.36% # Distribution of cycle latency between the first time a load is issued and its completion (Cycle)
board.processor.cores.core.lsq0.loadToUse::20-29          588      0.04%     99.40% # Distribution of cycle latency between the first time a load is issued and its completion (Cycle)
board.processor.cores.core.lsq0.loadToUse::30-39          422      0.03%     99.43% # Distribution of cycle latency between the first time a load is issued and its completion (Cycle)
board.processor.cores.core.lsq0.loadToUse::40-49          361      0.02%     99.45% # Distribution of cycle latency between the first time a load is issued and its completion (Cycle)
board.processor.cores.core.lsq0.loadToUse::50-59          310      0.02%     99.47% # Distribution of cycle latency between the first time a load is issued and its completion (Cycle)
board.processor.cores.core.lsq0.loadToUse::60-69          359      0.02%     99.50% # Distribution of cycle latency between the first time a load is issued and its completion (Cycle)
board.processor.cores.core.lsq0.loadToUse::70-79          366      0.02%     99.52% # Distribution of cycle latency between the first time a load is issued and its completion (Cycle)
board.processor.cores.core.lsq0.loadToUse::80-89          455      0.03%     99.55% # Distribution of cycle latency between the first time a load is issued and its completion (Cycle)
board.processor.cores.core.lsq0.loadToUse::90-99          453      0.03%     99.58% # Distribution of cycle latency between the first time a load is issued and its completion (Cycle)
board.processor.cores.core.lsq0.loadToUse::100-109          316      0.02%     99.60% # Distribution of cycle latency between the first time a load is issued and its completion (Cycle)
board.processor.cores.core.lsq0.loadToUse::110-119          395      0.03%     99.63% # Distribution of cycle latency between the first time a load is issued and its completion (Cycle)
board.processor.cores.core.lsq0.loadToUse::120-129          379      0.03%     99.66% # Distribution of cycle latency between the first time a load is issued and its completion (Cycle)
board.processor.cores.core.lsq0.loadToUse::130-139          347      0.02%     99.68% # Distribution of cycle latency between the first time a load is issued and its completion (Cycle)
board.processor.cores.core.lsq0.loadToUse::140-149          369      0.02%     99.70% # Distribution of cycle latency between the first time a load is issued and its completion (Cycle)
board.processor.cores.core.lsq0.loadToUse::150-159          350      0.02%     99.73% # Distribution of cycle latency between the first time a load is issued and its completion (Cycle)
board.processor.cores.core.lsq0.loadToUse::160-169          441      0.03%     99.76% # Distribution of cycle latency between the first time a load is issued and its completion (Cycle)
board.processor.cores.core.lsq0.loadToUse::170-179          380      0.03%     99.78% # Distribution of cycle latency between the first time a load is issued and its completion (Cycle)
board.processor.cores.core.lsq0.loadToUse::180-189          379      0.03%     99.81% # Distribution of cycle latency between the first time a load is issued and its completion (Cycle)
board.processor.cores.core.lsq0.loadToUse::190-199          155      0.01%     99.82% # Distribution of cycle latency between the first time a load is issued and its completion (Cycle)
board.processor.cores.core.lsq0.loadToUse::200-209          162      0.01%     99.83% # Distribution of cycle latency between the first time a load is issued and its completion (Cycle)
board.processor.cores.core.lsq0.loadToUse::210-219           78      0.01%     99.83% # Distribution of cycle latency between the first time a load is issued and its completion (Cycle)
board.processor.cores.core.lsq0.loadToUse::220-229           47      0.00%     99.84% # Distribution of cycle latency between the first time a load is issued and its completion (Cycle)
board.processor.cores.core.lsq0.loadToUse::230-239           53      0.00%     99.84% # Distribution of cycle latency between the first time a load is issued and its completion (Cycle)
board.processor.cores.core.lsq0.loadToUse::240-249          102      0.01%     99.85% # Distribution of cycle latency between the first time a load is issued and its completion (Cycle)
board.processor.cores.core.lsq0.loadToUse::250-259          310      0.02%     99.87% # Distribution of cycle latency between the first time a load is issued and its completion (Cycle)
board.processor.cores.core.lsq0.loadToUse::260-269          643      0.04%     99.91% # Distribution of cycle latency between the first time a load is issued and its completion (Cycle)
board.processor.cores.core.lsq0.loadToUse::270-279           84      0.01%     99.92% # Distribution of cycle latency between the first time a load is issued and its completion (Cycle)
board.processor.cores.core.lsq0.loadToUse::280-289           34      0.00%     99.92% # Distribution of cycle latency between the first time a load is issued and its completion (Cycle)
board.processor.cores.core.lsq0.loadToUse::290-299           16      0.00%     99.92% # Distribution of cycle latency between the first time a load is issued and its completion (Cycle)
board.processor.cores.core.lsq0.loadToUse::overflows         1185      0.08%    100.00% # Distribution of cycle latency between the first time a load is issued and its completion (Cycle)
board.processor.cores.core.lsq0.loadToUse::min_value            2                       # Distribution of cycle latency between the first time a load is issued and its completion (Cycle)
board.processor.cores.core.lsq0.loadToUse::max_value         2031                       # Distribution of cycle latency between the first time a load is issued and its completion (Cycle)
board.processor.cores.core.lsq0.loadToUse::total      1489240                       # Distribution of cycle latency between the first time a load is issued and its completion (Cycle)
board.processor.cores.core.lsq0.addedLoadsAndStores      3655342                       # Number of loads and stores written to the Load Store Queue (Count)
board.processor.cores.core.lsq0.lqAvgOccupancy         0.28                       # Average LQ Occupancy (UsedSlots/TotalSlots) (Ratio)
board.processor.cores.core.lsq0.sqAvgOccupancy         0.12                       # Average SQ Occupancy (UsedSlots/TotalSlots) (Ratio)
board.processor.cores.core.mmu.dtb.readHits            0                       # read hits (Count)
board.processor.cores.core.mmu.dtb.readMisses            0                       # read misses (Count)
board.processor.cores.core.mmu.dtb.readAccesses            0                       # read accesses (Count)
board.processor.cores.core.mmu.dtb.writeHits            0                       # write hits (Count)
board.processor.cores.core.mmu.dtb.writeMisses            0                       # write misses (Count)
board.processor.cores.core.mmu.dtb.writeAccesses            0                       # write accesses (Count)
board.processor.cores.core.mmu.dtb.hits             0                       # Total TLB (read and write) hits (Count)
board.processor.cores.core.mmu.dtb.misses            0                       # Total TLB (read and write) misses (Count)
board.processor.cores.core.mmu.dtb.accesses            0                       # Total TLB (read and write) accesses (Count)
board.processor.cores.core.mmu.dtb.walker.num_4kb_walks            0                       # Completed page walks with 4KB pages (Count)
board.processor.cores.core.mmu.dtb.walker.num_64kb_walks            0                       # Completed page walks with 64KB pages (Count)
board.processor.cores.core.mmu.dtb.walker.num_2mb_walks            0                       # Completed page walks with 2MB pages (Count)
board.processor.cores.core.mmu.dtb.walker.power_state.pwrStateResidencyTicks::UNDEFINED   1882547790                       # Cumulative time (in ticks) in various power states (Tick)
board.processor.cores.core.mmu.itb.readHits            0                       # read hits (Count)
board.processor.cores.core.mmu.itb.readMisses            0                       # read misses (Count)
board.processor.cores.core.mmu.itb.readAccesses            0                       # read accesses (Count)
board.processor.cores.core.mmu.itb.writeHits            0                       # write hits (Count)
board.processor.cores.core.mmu.itb.writeMisses            0                       # write misses (Count)
board.processor.cores.core.mmu.itb.writeAccesses            0                       # write accesses (Count)
board.processor.cores.core.mmu.itb.hits             0                       # Total TLB (read and write) hits (Count)
board.processor.cores.core.mmu.itb.misses            0                       # Total TLB (read and write) misses (Count)
board.processor.cores.core.mmu.itb.accesses            0                       # Total TLB (read and write) accesses (Count)
board.processor.cores.core.mmu.itb.walker.num_4kb_walks            0                       # Completed page walks with 4KB pages (Count)
board.processor.cores.core.mmu.itb.walker.num_64kb_walks            0                       # Completed page walks with 64KB pages (Count)
board.processor.cores.core.mmu.itb.walker.num_2mb_walks            0                       # Completed page walks with 2MB pages (Count)
board.processor.cores.core.mmu.itb.walker.power_state.pwrStateResidencyTicks::UNDEFINED   1882547790                       # Cumulative time (in ticks) in various power states (Tick)
board.processor.cores.core.power_state.pwrStateResidencyTicks::ON   1882547790                       # Cumulative time (in ticks) in various power states (Tick)
board.processor.cores.core.rename.status::Running      4538378     55.30%     55.30% # Number of cycles rename is running (Cycle)
board.processor.cores.core.rename.status::Idle       846713     10.32%     65.62% # Number of cycles rename is idle (Cycle)
board.processor.cores.core.rename.status::Squashing       246726      3.01%     68.63% # Number of cycles rename is squashing (Cycle)
board.processor.cores.core.rename.status::Blocked      1958196     23.86%     92.49% # Number of cycles rename is blocking (Cycle)
board.processor.cores.core.rename.status::Unblocking       585502      7.13%     99.62% # Number of cycles rename is unblocking (Cycle)
board.processor.cores.core.rename.status::SerializeStall        31060      0.38%    100.00% # Number of cycles rename stalled for serializing inst (Cycle)
board.processor.cores.core.rename.renamedInsts     22354130                       # Number of instructions processed by rename (Count)
board.processor.cores.core.rename.ROBFullEvents         2210                       # Number of times rename has blocked due to ROB full (Count)
board.processor.cores.core.rename.IQFullEvents       502271                       # Number of times rename has blocked due to IQ full (Count)
board.processor.cores.core.rename.LQFullEvents         7312                       # Number of times rename has blocked due to LQ full (Count)
board.processor.cores.core.rename.SQFullEvents        41964                       # Number of times rename has blocked due to SQ full (Count)
board.processor.cores.core.rename.renamedOperands     16805462                       # Number of destination operands rename has renamed (Count)
board.processor.cores.core.rename.lookups     31431016                       # Number of register rename lookups that rename has made (Count)
board.processor.cores.core.rename.intLookups     31351638                       # Number of integer rename lookups (Count)
board.processor.cores.core.rename.fpLookups          126                       # Number of floating rename lookups (Count)
board.processor.cores.core.rename.committedMaps      8150095                       # Number of HB maps that are committed (Count)
board.processor.cores.core.rename.undoneMaps      8655367                       # Number of HB maps that are undone due to squashing (Count)
board.processor.cores.core.rename.serializing          939                       # count of serializing insts renamed (Count)
board.processor.cores.core.rename.tempSerializing          940                       # count of temporary serializing insts renamed (Count)
board.processor.cores.core.rename.skidInsts       960182                       # count of insts added to the skid buffer (Count)
board.processor.cores.core.rename.intReturned      8116879                       # count of registers freed and written back to integer free list (Count)
board.processor.cores.core.rename.fpReturned           39                       # count of registers freed and written back to floating point free list (Count)
board.processor.cores.core.rob.reads         27718129                       # The number of ROB reads (Count)
board.processor.cores.core.rob.writes        40679088                       # The number of ROB writes (Count)
board.processor.cores.core.thread_0.numInsts     10458126                       # Number of Instructions committed (Count)
board.processor.cores.core.thread_0.numOps     10590877                       # Number of Ops committed (Count)
board.processor.cores.core.thread_0.numMemRefs      2105865                       # Number of Memory References (Count)
board.processor.cores.core.workload.numSyscalls           77                       # Number of system calls (Count)
board.workload.inst.arm                             0                       # number of arm instructions executed (Count)
board.workload.inst.quiesce                         0                       # number of quiesce instructions executed (Count)

---------- End Simulation Statistics   ----------
