
---------- Begin Simulation Statistics ----------
simSeconds                                   0.003923                       # Number of seconds simulated (Second)
simTicks                                   3922535316                       # Number of ticks simulated (Tick)
finalTick                                  3922535316                       # Number of ticks from beginning of simulation (restored from checkpoints and never reset) (Tick)
simFreq                                  1000000000000                       # The number of ticks per simulated second ((Tick/Second))
hostSeconds                                      6.68                       # Real time elapsed on the host (Second)
hostTickRate                                587603133                       # The number of ticks simulated per host second (ticks/s) ((Tick/Second))
hostMemory                                    4487844                       # Number of bytes of host memory used (Byte)
simInsts                                     10347906                       # Number of instructions simulated (Count)
simOps                                       10479079                       # Number of ops (including micro ops) simulated (Count)
hostInstRate                                  1550111                       # Simulator instruction rate (inst/s) ((Count/Second))
hostOpRate                                    1569760                       # Simulator op (including micro ops) rate (op/s) ((Count/Second))
board.cache_hierarchy.l1dcaches.demandHits::processor.cores.core.data      1993444                       # number of demand (read+write) hits (Count)
board.cache_hierarchy.l1dcaches.demandHits::total      1993444                       # number of demand (read+write) hits (Count)
board.cache_hierarchy.l1dcaches.overallHits::processor.cores.core.data      1993444                       # number of overall hits (Count)
board.cache_hierarchy.l1dcaches.overallHits::total      1993444                       # number of overall hits (Count)
board.cache_hierarchy.l1dcaches.demandMisses::processor.cores.core.data        13209                       # number of demand (read+write) misses (Count)
board.cache_hierarchy.l1dcaches.demandMisses::total        13209                       # number of demand (read+write) misses (Count)
board.cache_hierarchy.l1dcaches.overallMisses::processor.cores.core.data        13209                       # number of overall misses (Count)
board.cache_hierarchy.l1dcaches.overallMisses::total        13209                       # number of overall misses (Count)
board.cache_hierarchy.l1dcaches.demandMissLatency::processor.cores.core.data    265676280                       # number of demand (read+write) miss ticks (Tick)
board.cache_hierarchy.l1dcaches.demandMissLatency::total    265676280                       # number of demand (read+write) miss ticks (Tick)
board.cache_hierarchy.l1dcaches.overallMissLatency::processor.cores.core.data    265676280                       # number of overall miss ticks (Tick)
board.cache_hierarchy.l1dcaches.overallMissLatency::total    265676280                       # number of overall miss ticks (Tick)
board.cache_hierarchy.l1dcaches.demandAccesses::processor.cores.core.data      2006653                       # number of demand (read+write) accesses (Count)
board.cache_hierarchy.l1dcaches.demandAccesses::total      2006653                       # number of demand (read+write) accesses (Count)
board.cache_hierarchy.l1dcaches.overallAccesses::processor.cores.core.data      2006653                       # number of overall (read+write) accesses (Count)
board.cache_hierarchy.l1dcaches.overallAccesses::total      2006653                       # number of overall (read+write) accesses (Count)
board.cache_hierarchy.l1dcaches.demandMissRate::processor.cores.core.data     0.006583                       # miss rate for demand accesses (Ratio)
board.cache_hierarchy.l1dcaches.demandMissRate::total     0.006583                       # miss rate for demand accesses (Ratio)
board.cache_hierarchy.l1dcaches.overallMissRate::processor.cores.core.data     0.006583                       # miss rate for overall accesses (Ratio)
board.cache_hierarchy.l1dcaches.overallMissRate::total     0.006583                       # miss rate for overall accesses (Ratio)
board.cache_hierarchy.l1dcaches.demandAvgMissLatency::processor.cores.core.data 20113.277311                       # average overall miss latency in ticks ((Tick/Count))
board.cache_hierarchy.l1dcaches.demandAvgMissLatency::total 20113.277311                       # average overall miss latency in ticks ((Tick/Count))
board.cache_hierarchy.l1dcaches.overallAvgMissLatency::processor.cores.core.data 20113.277311                       # average overall miss latency ((Tick/Count))
board.cache_hierarchy.l1dcaches.overallAvgMissLatency::total 20113.277311                       # average overall miss latency ((Tick/Count))
board.cache_hierarchy.l1dcaches.blockedCycles::no_mshrs            0                       # number of cycles access was blocked (Cycle)
board.cache_hierarchy.l1dcaches.blockedCycles::no_wbuffers            0                       # number of cycles access was blocked (Cycle)
board.cache_hierarchy.l1dcaches.blockedCycles::no_targets            0                       # number of cycles access was blocked (Cycle)
board.cache_hierarchy.l1dcaches.blockedCauses::no_mshrs            0                       # number of times access was blocked (Count)
board.cache_hierarchy.l1dcaches.blockedCauses::no_wbuffers            0                       # number of times access was blocked (Count)
board.cache_hierarchy.l1dcaches.blockedCauses::no_targets            0                       # number of times access was blocked (Count)
board.cache_hierarchy.l1dcaches.avgBlocked::no_mshrs          nan                       # average number of cycles each access was blocked ((Cycle/Count))
board.cache_hierarchy.l1dcaches.avgBlocked::no_wbuffers          nan                       # average number of cycles each access was blocked ((Cycle/Count))
board.cache_hierarchy.l1dcaches.avgBlocked::no_targets          nan                       # average number of cycles each access was blocked ((Cycle/Count))
board.cache_hierarchy.l1dcaches.writebacks::writebacks        25549                       # number of writebacks (Count)
board.cache_hierarchy.l1dcaches.writebacks::total        25549                       # number of writebacks (Count)
board.cache_hierarchy.l1dcaches.demandMshrHits::processor.cores.core.data           76                       # number of demand (read+write) MSHR hits (Count)
board.cache_hierarchy.l1dcaches.demandMshrHits::total           76                       # number of demand (read+write) MSHR hits (Count)
board.cache_hierarchy.l1dcaches.overallMshrHits::processor.cores.core.data           76                       # number of overall MSHR hits (Count)
board.cache_hierarchy.l1dcaches.overallMshrHits::total           76                       # number of overall MSHR hits (Count)
board.cache_hierarchy.l1dcaches.demandMshrMisses::processor.cores.core.data        13133                       # number of demand (read+write) MSHR misses (Count)
board.cache_hierarchy.l1dcaches.demandMshrMisses::total        13133                       # number of demand (read+write) MSHR misses (Count)
board.cache_hierarchy.l1dcaches.overallMshrMisses::cache_hierarchy.l1dcaches.prefetcher        15965                       # number of overall MSHR misses (Count)
board.cache_hierarchy.l1dcaches.overallMshrMisses::processor.cores.core.data        13133                       # number of overall MSHR misses (Count)
board.cache_hierarchy.l1dcaches.overallMshrMisses::total        29098                       # number of overall MSHR misses (Count)
board.cache_hierarchy.l1dcaches.demandMshrMissLatency::processor.cores.core.data    260324526                       # number of demand (read+write) MSHR miss ticks (Tick)
board.cache_hierarchy.l1dcaches.demandMshrMissLatency::total    260324526                       # number of demand (read+write) MSHR miss ticks (Tick)
board.cache_hierarchy.l1dcaches.overallMshrMissLatency::cache_hierarchy.l1dcaches.prefetcher    120018604                       # number of overall MSHR miss ticks (Tick)
board.cache_hierarchy.l1dcaches.overallMshrMissLatency::processor.cores.core.data    260324526                       # number of overall MSHR miss ticks (Tick)
board.cache_hierarchy.l1dcaches.overallMshrMissLatency::total    380343130                       # number of overall MSHR miss ticks (Tick)
board.cache_hierarchy.l1dcaches.demandMshrMissRate::processor.cores.core.data     0.006545                       # mshr miss ratio for demand accesses (Ratio)
board.cache_hierarchy.l1dcaches.demandMshrMissRate::total     0.006545                       # mshr miss ratio for demand accesses (Ratio)
board.cache_hierarchy.l1dcaches.overallMshrMissRate::cache_hierarchy.l1dcaches.prefetcher          inf                       # mshr miss ratio for overall accesses (Ratio)
board.cache_hierarchy.l1dcaches.overallMshrMissRate::processor.cores.core.data     0.006545                       # mshr miss ratio for overall accesses (Ratio)
board.cache_hierarchy.l1dcaches.overallMshrMissRate::total     0.014501                       # mshr miss ratio for overall accesses (Ratio)
board.cache_hierarchy.l1dcaches.demandAvgMshrMissLatency::processor.cores.core.data 19822.167517                       # average overall mshr miss latency ((Tick/Count))
board.cache_hierarchy.l1dcaches.demandAvgMshrMissLatency::total 19822.167517                       # average overall mshr miss latency ((Tick/Count))
board.cache_hierarchy.l1dcaches.overallAvgMshrMissLatency::cache_hierarchy.l1dcaches.prefetcher  7517.607516                       # average overall mshr miss latency ((Tick/Count))
board.cache_hierarchy.l1dcaches.overallAvgMshrMissLatency::processor.cores.core.data 19822.167517                       # average overall mshr miss latency ((Tick/Count))
board.cache_hierarchy.l1dcaches.overallAvgMshrMissLatency::total 13071.109011                       # average overall mshr miss latency ((Tick/Count))
board.cache_hierarchy.l1dcaches.replacements        29280                       # number of replacements (Count)
board.cache_hierarchy.l1dcaches.HardPFReq.mshrMisses::cache_hierarchy.l1dcaches.prefetcher        15965                       # number of HardPFReq MSHR misses (Count)
board.cache_hierarchy.l1dcaches.HardPFReq.mshrMisses::total        15965                       # number of HardPFReq MSHR misses (Count)
board.cache_hierarchy.l1dcaches.HardPFReq.mshrMissLatency::cache_hierarchy.l1dcaches.prefetcher    120018604                       # number of HardPFReq MSHR miss ticks (Tick)
board.cache_hierarchy.l1dcaches.HardPFReq.mshrMissLatency::total    120018604                       # number of HardPFReq MSHR miss ticks (Tick)
board.cache_hierarchy.l1dcaches.HardPFReq.mshrMissRate::cache_hierarchy.l1dcaches.prefetcher          inf                       # mshr miss rate for HardPFReq accesses (Ratio)
board.cache_hierarchy.l1dcaches.HardPFReq.mshrMissRate::total          inf                       # mshr miss rate for HardPFReq accesses (Ratio)
board.cache_hierarchy.l1dcaches.HardPFReq.avgMshrMissLatency::cache_hierarchy.l1dcaches.prefetcher  7517.607516                       # average HardPFReq mshr miss latency ((Tick/Count))
board.cache_hierarchy.l1dcaches.HardPFReq.avgMshrMissLatency::total  7517.607516                       # average HardPFReq mshr miss latency ((Tick/Count))
board.cache_hierarchy.l1dcaches.LoadLockedReq.hits::processor.cores.core.data           22                       # number of LoadLockedReq hits (Count)
board.cache_hierarchy.l1dcaches.LoadLockedReq.hits::total           22                       # number of LoadLockedReq hits (Count)
board.cache_hierarchy.l1dcaches.LoadLockedReq.misses::processor.cores.core.data            2                       # number of LoadLockedReq misses (Count)
board.cache_hierarchy.l1dcaches.LoadLockedReq.misses::total            2                       # number of LoadLockedReq misses (Count)
board.cache_hierarchy.l1dcaches.LoadLockedReq.missLatency::processor.cores.core.data        61494                       # number of LoadLockedReq miss ticks (Tick)
board.cache_hierarchy.l1dcaches.LoadLockedReq.missLatency::total        61494                       # number of LoadLockedReq miss ticks (Tick)
board.cache_hierarchy.l1dcaches.LoadLockedReq.accesses::processor.cores.core.data           24                       # number of LoadLockedReq accesses(hits+misses) (Count)
board.cache_hierarchy.l1dcaches.LoadLockedReq.accesses::total           24                       # number of LoadLockedReq accesses(hits+misses) (Count)
board.cache_hierarchy.l1dcaches.LoadLockedReq.missRate::processor.cores.core.data     0.083333                       # miss rate for LoadLockedReq accesses (Ratio)
board.cache_hierarchy.l1dcaches.LoadLockedReq.missRate::total     0.083333                       # miss rate for LoadLockedReq accesses (Ratio)
board.cache_hierarchy.l1dcaches.LoadLockedReq.avgMissLatency::processor.cores.core.data        30747                       # average LoadLockedReq miss latency ((Tick/Count))
board.cache_hierarchy.l1dcaches.LoadLockedReq.avgMissLatency::total        30747                       # average LoadLockedReq miss latency ((Tick/Count))
board.cache_hierarchy.l1dcaches.LoadLockedReq.mshrMisses::processor.cores.core.data            2                       # number of LoadLockedReq MSHR misses (Count)
board.cache_hierarchy.l1dcaches.LoadLockedReq.mshrMisses::total            2                       # number of LoadLockedReq MSHR misses (Count)
board.cache_hierarchy.l1dcaches.LoadLockedReq.mshrMissLatency::processor.cores.core.data        61050                       # number of LoadLockedReq MSHR miss ticks (Tick)
board.cache_hierarchy.l1dcaches.LoadLockedReq.mshrMissLatency::total        61050                       # number of LoadLockedReq MSHR miss ticks (Tick)
board.cache_hierarchy.l1dcaches.LoadLockedReq.mshrMissRate::processor.cores.core.data     0.083333                       # mshr miss rate for LoadLockedReq accesses (Ratio)
board.cache_hierarchy.l1dcaches.LoadLockedReq.mshrMissRate::total     0.083333                       # mshr miss rate for LoadLockedReq accesses (Ratio)
board.cache_hierarchy.l1dcaches.LoadLockedReq.avgMshrMissLatency::processor.cores.core.data        30525                       # average LoadLockedReq mshr miss latency ((Tick/Count))
board.cache_hierarchy.l1dcaches.LoadLockedReq.avgMshrMissLatency::total        30525                       # average LoadLockedReq mshr miss latency ((Tick/Count))
board.cache_hierarchy.l1dcaches.ReadReq.hits::processor.cores.core.data      1459787                       # number of ReadReq hits (Count)
board.cache_hierarchy.l1dcaches.ReadReq.hits::total      1459787                       # number of ReadReq hits (Count)
board.cache_hierarchy.l1dcaches.ReadReq.misses::processor.cores.core.data         4406                       # number of ReadReq misses (Count)
board.cache_hierarchy.l1dcaches.ReadReq.misses::total         4406                       # number of ReadReq misses (Count)
board.cache_hierarchy.l1dcaches.ReadReq.missLatency::processor.cores.core.data     75716430                       # number of ReadReq miss ticks (Tick)
board.cache_hierarchy.l1dcaches.ReadReq.missLatency::total     75716430                       # number of ReadReq miss ticks (Tick)
board.cache_hierarchy.l1dcaches.ReadReq.accesses::processor.cores.core.data      1464193                       # number of ReadReq accesses(hits+misses) (Count)
board.cache_hierarchy.l1dcaches.ReadReq.accesses::total      1464193                       # number of ReadReq accesses(hits+misses) (Count)
board.cache_hierarchy.l1dcaches.ReadReq.missRate::processor.cores.core.data     0.003009                       # miss rate for ReadReq accesses (Ratio)
board.cache_hierarchy.l1dcaches.ReadReq.missRate::total     0.003009                       # miss rate for ReadReq accesses (Ratio)
board.cache_hierarchy.l1dcaches.ReadReq.avgMissLatency::processor.cores.core.data 17184.845665                       # average ReadReq miss latency ((Tick/Count))
board.cache_hierarchy.l1dcaches.ReadReq.avgMissLatency::total 17184.845665                       # average ReadReq miss latency ((Tick/Count))
board.cache_hierarchy.l1dcaches.ReadReq.mshrHits::processor.cores.core.data           10                       # number of ReadReq MSHR hits (Count)
board.cache_hierarchy.l1dcaches.ReadReq.mshrHits::total           10                       # number of ReadReq MSHR hits (Count)
board.cache_hierarchy.l1dcaches.ReadReq.mshrMisses::processor.cores.core.data         4396                       # number of ReadReq MSHR misses (Count)
board.cache_hierarchy.l1dcaches.ReadReq.mshrMisses::total         4396                       # number of ReadReq MSHR misses (Count)
board.cache_hierarchy.l1dcaches.ReadReq.mshrMissLatency::processor.cores.core.data     74157990                       # number of ReadReq MSHR miss ticks (Tick)
board.cache_hierarchy.l1dcaches.ReadReq.mshrMissLatency::total     74157990                       # number of ReadReq MSHR miss ticks (Tick)
board.cache_hierarchy.l1dcaches.ReadReq.mshrMissRate::processor.cores.core.data     0.003002                       # mshr miss rate for ReadReq accesses (Ratio)
board.cache_hierarchy.l1dcaches.ReadReq.mshrMissRate::total     0.003002                       # mshr miss rate for ReadReq accesses (Ratio)
board.cache_hierarchy.l1dcaches.ReadReq.avgMshrMissLatency::processor.cores.core.data 16869.424477                       # average ReadReq mshr miss latency ((Tick/Count))
board.cache_hierarchy.l1dcaches.ReadReq.avgMshrMissLatency::total 16869.424477                       # average ReadReq mshr miss latency ((Tick/Count))
board.cache_hierarchy.l1dcaches.StoreCondReq.hits::processor.cores.core.data           24                       # number of StoreCondReq hits (Count)
board.cache_hierarchy.l1dcaches.StoreCondReq.hits::total           24                       # number of StoreCondReq hits (Count)
board.cache_hierarchy.l1dcaches.StoreCondReq.accesses::processor.cores.core.data           24                       # number of StoreCondReq accesses(hits+misses) (Count)
board.cache_hierarchy.l1dcaches.StoreCondReq.accesses::total           24                       # number of StoreCondReq accesses(hits+misses) (Count)
board.cache_hierarchy.l1dcaches.SwapReq.hits::processor.cores.core.data        64891                       # number of SwapReq hits (Count)
board.cache_hierarchy.l1dcaches.SwapReq.hits::total        64891                       # number of SwapReq hits (Count)
board.cache_hierarchy.l1dcaches.SwapReq.misses::processor.cores.core.data          692                       # number of SwapReq misses (Count)
board.cache_hierarchy.l1dcaches.SwapReq.misses::total          692                       # number of SwapReq misses (Count)
board.cache_hierarchy.l1dcaches.SwapReq.missLatency::processor.cores.core.data      2206236                       # number of SwapReq miss ticks (Tick)
board.cache_hierarchy.l1dcaches.SwapReq.missLatency::total      2206236                       # number of SwapReq miss ticks (Tick)
board.cache_hierarchy.l1dcaches.SwapReq.accesses::processor.cores.core.data        65583                       # number of SwapReq accesses(hits+misses) (Count)
board.cache_hierarchy.l1dcaches.SwapReq.accesses::total        65583                       # number of SwapReq accesses(hits+misses) (Count)
board.cache_hierarchy.l1dcaches.SwapReq.missRate::processor.cores.core.data     0.010552                       # miss rate for SwapReq accesses (Ratio)
board.cache_hierarchy.l1dcaches.SwapReq.missRate::total     0.010552                       # miss rate for SwapReq accesses (Ratio)
board.cache_hierarchy.l1dcaches.SwapReq.avgMissLatency::processor.cores.core.data  3188.202312                       # average SwapReq miss latency ((Tick/Count))
board.cache_hierarchy.l1dcaches.SwapReq.avgMissLatency::total  3188.202312                       # average SwapReq miss latency ((Tick/Count))
board.cache_hierarchy.l1dcaches.SwapReq.mshrMisses::processor.cores.core.data          692                       # number of SwapReq MSHR misses (Count)
board.cache_hierarchy.l1dcaches.SwapReq.mshrMisses::total          692                       # number of SwapReq MSHR misses (Count)
board.cache_hierarchy.l1dcaches.SwapReq.mshrMissLatency::processor.cores.core.data      2052612                       # number of SwapReq MSHR miss ticks (Tick)
board.cache_hierarchy.l1dcaches.SwapReq.mshrMissLatency::total      2052612                       # number of SwapReq MSHR miss ticks (Tick)
board.cache_hierarchy.l1dcaches.SwapReq.mshrMissRate::processor.cores.core.data     0.010552                       # mshr miss rate for SwapReq accesses (Ratio)
board.cache_hierarchy.l1dcaches.SwapReq.mshrMissRate::total     0.010552                       # mshr miss rate for SwapReq accesses (Ratio)
board.cache_hierarchy.l1dcaches.SwapReq.avgMshrMissLatency::processor.cores.core.data  2966.202312                       # average SwapReq mshr miss latency ((Tick/Count))
board.cache_hierarchy.l1dcaches.SwapReq.avgMshrMissLatency::total  2966.202312                       # average SwapReq mshr miss latency ((Tick/Count))
board.cache_hierarchy.l1dcaches.WriteReq.hits::processor.cores.core.data       533657                       # number of WriteReq hits (Count)
board.cache_hierarchy.l1dcaches.WriteReq.hits::total       533657                       # number of WriteReq hits (Count)
board.cache_hierarchy.l1dcaches.WriteReq.misses::processor.cores.core.data         8803                       # number of WriteReq misses (Count)
board.cache_hierarchy.l1dcaches.WriteReq.misses::total         8803                       # number of WriteReq misses (Count)
board.cache_hierarchy.l1dcaches.WriteReq.missLatency::processor.cores.core.data    189959850                       # number of WriteReq miss ticks (Tick)
board.cache_hierarchy.l1dcaches.WriteReq.missLatency::total    189959850                       # number of WriteReq miss ticks (Tick)
board.cache_hierarchy.l1dcaches.WriteReq.accesses::processor.cores.core.data       542460                       # number of WriteReq accesses(hits+misses) (Count)
board.cache_hierarchy.l1dcaches.WriteReq.accesses::total       542460                       # number of WriteReq accesses(hits+misses) (Count)
board.cache_hierarchy.l1dcaches.WriteReq.missRate::processor.cores.core.data     0.016228                       # miss rate for WriteReq accesses (Ratio)
board.cache_hierarchy.l1dcaches.WriteReq.missRate::total     0.016228                       # miss rate for WriteReq accesses (Ratio)
board.cache_hierarchy.l1dcaches.WriteReq.avgMissLatency::processor.cores.core.data 21578.990117                       # average WriteReq miss latency ((Tick/Count))
board.cache_hierarchy.l1dcaches.WriteReq.avgMissLatency::total 21578.990117                       # average WriteReq miss latency ((Tick/Count))
board.cache_hierarchy.l1dcaches.WriteReq.mshrHits::processor.cores.core.data           66                       # number of WriteReq MSHR hits (Count)
board.cache_hierarchy.l1dcaches.WriteReq.mshrHits::total           66                       # number of WriteReq MSHR hits (Count)
board.cache_hierarchy.l1dcaches.WriteReq.mshrMisses::processor.cores.core.data         8737                       # number of WriteReq MSHR misses (Count)
board.cache_hierarchy.l1dcaches.WriteReq.mshrMisses::total         8737                       # number of WriteReq MSHR misses (Count)
board.cache_hierarchy.l1dcaches.WriteReq.mshrMissLatency::processor.cores.core.data    186166536                       # number of WriteReq MSHR miss ticks (Tick)
board.cache_hierarchy.l1dcaches.WriteReq.mshrMissLatency::total    186166536                       # number of WriteReq MSHR miss ticks (Tick)
board.cache_hierarchy.l1dcaches.WriteReq.mshrMissRate::processor.cores.core.data     0.016106                       # mshr miss rate for WriteReq accesses (Ratio)
board.cache_hierarchy.l1dcaches.WriteReq.mshrMissRate::total     0.016106                       # mshr miss rate for WriteReq accesses (Ratio)
board.cache_hierarchy.l1dcaches.WriteReq.avgMshrMissLatency::processor.cores.core.data 21307.832895                       # average WriteReq mshr miss latency ((Tick/Count))
board.cache_hierarchy.l1dcaches.WriteReq.avgMshrMissLatency::total 21307.832895                       # average WriteReq mshr miss latency ((Tick/Count))
board.cache_hierarchy.l1dcaches.power_state.pwrStateResidencyTicks::UNDEFINED   3922535316                       # Cumulative time (in ticks) in various power states (Tick)
board.cache_hierarchy.l1dcaches.prefetcher.demandMshrMisses        13133                       # demands not covered by prefetchs (Count)
board.cache_hierarchy.l1dcaches.prefetcher.pfIssued        55607                       # number of hwpf issued (Count)
board.cache_hierarchy.l1dcaches.prefetcher.pfUnused          425                       # number of HardPF blocks evicted w/o reference (Count)
board.cache_hierarchy.l1dcaches.prefetcher.pfUseful        15433                       # number of useful prefetch (Count)
board.cache_hierarchy.l1dcaches.prefetcher.pfUsefulButMiss            0                       # number of hit on prefetch but cache block is not in an usable state (Count)
board.cache_hierarchy.l1dcaches.prefetcher.accuracy     0.277537                       # accuracy of the prefetcher (Count)
board.cache_hierarchy.l1dcaches.prefetcher.coverage     0.540258                       # coverage brought by this prefetcher (Count)
board.cache_hierarchy.l1dcaches.prefetcher.pfHitInCache        39205                       # number of prefetches hitting in cache (Count)
board.cache_hierarchy.l1dcaches.prefetcher.pfHitInMSHR          437                       # number of prefetches hitting in a MSHR (Count)
board.cache_hierarchy.l1dcaches.prefetcher.pfHitInWB            0                       # number of prefetches hit in the Write Buffer (Count)
board.cache_hierarchy.l1dcaches.prefetcher.pfLate        39642                       # number of late prefetches (hitting in cache, MSHR or WB) (Count)
board.cache_hierarchy.l1dcaches.prefetcher.pfIdentified        55607                       # number of prefetch candidates identified (Count)
board.cache_hierarchy.l1dcaches.prefetcher.pfBufferHit            0                       # number of redundant prefetches already in prefetch queue (Count)
board.cache_hierarchy.l1dcaches.prefetcher.pfInCache            0                       # number of redundant prefetches already in cache/mshr dropped (Count)
board.cache_hierarchy.l1dcaches.prefetcher.pfRemovedDemand            0                       # number of prefetches dropped due to a demand for the same address (Count)
board.cache_hierarchy.l1dcaches.prefetcher.pfRemovedFull            0                       # number of prefetches dropped due to prefetch queue size (Count)
board.cache_hierarchy.l1dcaches.prefetcher.pfSpanPage         2305                       # number of prefetches that crossed the page (Count)
board.cache_hierarchy.l1dcaches.prefetcher.pfUsefulSpanPage         2210                       # number of prefetches that is useful and crossed the page (Count)
board.cache_hierarchy.l1dcaches.prefetcher.power_state.pwrStateResidencyTicks::UNDEFINED   3922535316                       # Cumulative time (in ticks) in various power states (Tick)
board.cache_hierarchy.l1dcaches.tags.tagsInUse   507.818070                       # Average ticks per tags in use ((Tick/Count))
board.cache_hierarchy.l1dcaches.tags.totalRefs      2088173                       # Total number of references to valid blocks. (Count)
board.cache_hierarchy.l1dcaches.tags.sampledRefs        29792                       # Sample count of references to valid blocks. (Count)
board.cache_hierarchy.l1dcaches.tags.avgRefs    70.091736                       # Average number of references to valid blocks. ((Count/Count))
board.cache_hierarchy.l1dcaches.tags.warmupTick       189588                       # The tick when the warmup percentage was hit. (Tick)
board.cache_hierarchy.l1dcaches.tags.occupancies::cache_hierarchy.l1dcaches.prefetcher   337.506012                       # Average occupied blocks per tick, per requestor ((Count/Tick))
board.cache_hierarchy.l1dcaches.tags.occupancies::processor.cores.core.data   170.312058                       # Average occupied blocks per tick, per requestor ((Count/Tick))
board.cache_hierarchy.l1dcaches.tags.avgOccs::cache_hierarchy.l1dcaches.prefetcher     0.659191                       # Average percentage of cache occupancy ((Ratio/Tick))
board.cache_hierarchy.l1dcaches.tags.avgOccs::processor.cores.core.data     0.332641                       # Average percentage of cache occupancy ((Ratio/Tick))
board.cache_hierarchy.l1dcaches.tags.avgOccs::total     0.991832                       # Average percentage of cache occupancy ((Ratio/Tick))
board.cache_hierarchy.l1dcaches.tags.occupanciesTaskId::1022          260                       # Occupied blocks per task id (Count)
board.cache_hierarchy.l1dcaches.tags.occupanciesTaskId::1024          252                       # Occupied blocks per task id (Count)
board.cache_hierarchy.l1dcaches.tags.ageTaskId_1022::0            2                       # Occupied blocks per task id, per block age (Count)
board.cache_hierarchy.l1dcaches.tags.ageTaskId_1022::1          258                       # Occupied blocks per task id, per block age (Count)
board.cache_hierarchy.l1dcaches.tags.ageTaskId_1024::0           91                       # Occupied blocks per task id, per block age (Count)
board.cache_hierarchy.l1dcaches.tags.ageTaskId_1024::1          157                       # Occupied blocks per task id, per block age (Count)
board.cache_hierarchy.l1dcaches.tags.ageTaskId_1024::2            2                       # Occupied blocks per task id, per block age (Count)
board.cache_hierarchy.l1dcaches.tags.ageTaskId_1024::3            2                       # Occupied blocks per task id, per block age (Count)
board.cache_hierarchy.l1dcaches.tags.ratioOccsTaskId::1022     0.507812                       # Ratio of occupied blocks and all blocks, per task id (Ratio)
board.cache_hierarchy.l1dcaches.tags.ratioOccsTaskId::1024     0.492188                       # Ratio of occupied blocks and all blocks, per task id (Ratio)
board.cache_hierarchy.l1dcaches.tags.tagAccesses     16608064                       # Number of tag accesses (Count)
board.cache_hierarchy.l1dcaches.tags.dataAccesses     16608064                       # Number of data accesses (Count)
board.cache_hierarchy.l1dcaches.tags.power_state.pwrStateResidencyTicks::UNDEFINED   3922535316                       # Cumulative time (in ticks) in various power states (Tick)
board.cache_hierarchy.l1icaches.demandHits::processor.cores.core.inst     14033650                       # number of demand (read+write) hits (Count)
board.cache_hierarchy.l1icaches.demandHits::total     14033650                       # number of demand (read+write) hits (Count)
board.cache_hierarchy.l1icaches.overallHits::processor.cores.core.inst     14033650                       # number of overall hits (Count)
board.cache_hierarchy.l1icaches.overallHits::total     14033650                       # number of overall hits (Count)
board.cache_hierarchy.l1icaches.demandMisses::processor.cores.core.inst         1401                       # number of demand (read+write) misses (Count)
board.cache_hierarchy.l1icaches.demandMisses::total         1401                       # number of demand (read+write) misses (Count)
board.cache_hierarchy.l1icaches.overallMisses::processor.cores.core.inst         1401                       # number of overall misses (Count)
board.cache_hierarchy.l1icaches.overallMisses::total         1401                       # number of overall misses (Count)
board.cache_hierarchy.l1icaches.demandMissLatency::processor.cores.core.inst     81784578                       # number of demand (read+write) miss ticks (Tick)
board.cache_hierarchy.l1icaches.demandMissLatency::total     81784578                       # number of demand (read+write) miss ticks (Tick)
board.cache_hierarchy.l1icaches.overallMissLatency::processor.cores.core.inst     81784578                       # number of overall miss ticks (Tick)
board.cache_hierarchy.l1icaches.overallMissLatency::total     81784578                       # number of overall miss ticks (Tick)
board.cache_hierarchy.l1icaches.demandAccesses::processor.cores.core.inst     14035051                       # number of demand (read+write) accesses (Count)
board.cache_hierarchy.l1icaches.demandAccesses::total     14035051                       # number of demand (read+write) accesses (Count)
board.cache_hierarchy.l1icaches.overallAccesses::processor.cores.core.inst     14035051                       # number of overall (read+write) accesses (Count)
board.cache_hierarchy.l1icaches.overallAccesses::total     14035051                       # number of overall (read+write) accesses (Count)
board.cache_hierarchy.l1icaches.demandMissRate::processor.cores.core.inst     0.000100                       # miss rate for demand accesses (Ratio)
board.cache_hierarchy.l1icaches.demandMissRate::total     0.000100                       # miss rate for demand accesses (Ratio)
board.cache_hierarchy.l1icaches.overallMissRate::processor.cores.core.inst     0.000100                       # miss rate for overall accesses (Ratio)
board.cache_hierarchy.l1icaches.overallMissRate::total     0.000100                       # miss rate for overall accesses (Ratio)
board.cache_hierarchy.l1icaches.demandAvgMissLatency::processor.cores.core.inst 58375.858672                       # average overall miss latency in ticks ((Tick/Count))
board.cache_hierarchy.l1icaches.demandAvgMissLatency::total 58375.858672                       # average overall miss latency in ticks ((Tick/Count))
board.cache_hierarchy.l1icaches.overallAvgMissLatency::processor.cores.core.inst 58375.858672                       # average overall miss latency ((Tick/Count))
board.cache_hierarchy.l1icaches.overallAvgMissLatency::total 58375.858672                       # average overall miss latency ((Tick/Count))
board.cache_hierarchy.l1icaches.blockedCycles::no_mshrs            0                       # number of cycles access was blocked (Cycle)
board.cache_hierarchy.l1icaches.blockedCycles::no_wbuffers            0                       # number of cycles access was blocked (Cycle)
board.cache_hierarchy.l1icaches.blockedCycles::no_targets            0                       # number of cycles access was blocked (Cycle)
board.cache_hierarchy.l1icaches.blockedCauses::no_mshrs            0                       # number of times access was blocked (Count)
board.cache_hierarchy.l1icaches.blockedCauses::no_wbuffers            0                       # number of times access was blocked (Count)
board.cache_hierarchy.l1icaches.blockedCauses::no_targets            0                       # number of times access was blocked (Count)
board.cache_hierarchy.l1icaches.avgBlocked::no_mshrs          nan                       # average number of cycles each access was blocked ((Cycle/Count))
board.cache_hierarchy.l1icaches.avgBlocked::no_wbuffers          nan                       # average number of cycles each access was blocked ((Cycle/Count))
board.cache_hierarchy.l1icaches.avgBlocked::no_targets          nan                       # average number of cycles each access was blocked ((Cycle/Count))
board.cache_hierarchy.l1icaches.demandMshrMisses::processor.cores.core.inst         1401                       # number of demand (read+write) MSHR misses (Count)
board.cache_hierarchy.l1icaches.demandMshrMisses::total         1401                       # number of demand (read+write) MSHR misses (Count)
board.cache_hierarchy.l1icaches.overallMshrMisses::processor.cores.core.inst         1401                       # number of overall MSHR misses (Count)
board.cache_hierarchy.l1icaches.overallMshrMisses::total         1401                       # number of overall MSHR misses (Count)
board.cache_hierarchy.l1icaches.demandMshrMissLatency::processor.cores.core.inst     81473556                       # number of demand (read+write) MSHR miss ticks (Tick)
board.cache_hierarchy.l1icaches.demandMshrMissLatency::total     81473556                       # number of demand (read+write) MSHR miss ticks (Tick)
board.cache_hierarchy.l1icaches.overallMshrMissLatency::processor.cores.core.inst     81473556                       # number of overall MSHR miss ticks (Tick)
board.cache_hierarchy.l1icaches.overallMshrMissLatency::total     81473556                       # number of overall MSHR miss ticks (Tick)
board.cache_hierarchy.l1icaches.demandMshrMissRate::processor.cores.core.inst     0.000100                       # mshr miss ratio for demand accesses (Ratio)
board.cache_hierarchy.l1icaches.demandMshrMissRate::total     0.000100                       # mshr miss ratio for demand accesses (Ratio)
board.cache_hierarchy.l1icaches.overallMshrMissRate::processor.cores.core.inst     0.000100                       # mshr miss ratio for overall accesses (Ratio)
board.cache_hierarchy.l1icaches.overallMshrMissRate::total     0.000100                       # mshr miss ratio for overall accesses (Ratio)
board.cache_hierarchy.l1icaches.demandAvgMshrMissLatency::processor.cores.core.inst 58153.858672                       # average overall mshr miss latency ((Tick/Count))
board.cache_hierarchy.l1icaches.demandAvgMshrMissLatency::total 58153.858672                       # average overall mshr miss latency ((Tick/Count))
board.cache_hierarchy.l1icaches.overallAvgMshrMissLatency::processor.cores.core.inst 58153.858672                       # average overall mshr miss latency ((Tick/Count))
board.cache_hierarchy.l1icaches.overallAvgMshrMissLatency::total 58153.858672                       # average overall mshr miss latency ((Tick/Count))
board.cache_hierarchy.l1icaches.replacements          889                       # number of replacements (Count)
board.cache_hierarchy.l1icaches.ReadReq.hits::processor.cores.core.inst     14033650                       # number of ReadReq hits (Count)
board.cache_hierarchy.l1icaches.ReadReq.hits::total     14033650                       # number of ReadReq hits (Count)
board.cache_hierarchy.l1icaches.ReadReq.misses::processor.cores.core.inst         1401                       # number of ReadReq misses (Count)
board.cache_hierarchy.l1icaches.ReadReq.misses::total         1401                       # number of ReadReq misses (Count)
board.cache_hierarchy.l1icaches.ReadReq.missLatency::processor.cores.core.inst     81784578                       # number of ReadReq miss ticks (Tick)
board.cache_hierarchy.l1icaches.ReadReq.missLatency::total     81784578                       # number of ReadReq miss ticks (Tick)
board.cache_hierarchy.l1icaches.ReadReq.accesses::processor.cores.core.inst     14035051                       # number of ReadReq accesses(hits+misses) (Count)
board.cache_hierarchy.l1icaches.ReadReq.accesses::total     14035051                       # number of ReadReq accesses(hits+misses) (Count)
board.cache_hierarchy.l1icaches.ReadReq.missRate::processor.cores.core.inst     0.000100                       # miss rate for ReadReq accesses (Ratio)
board.cache_hierarchy.l1icaches.ReadReq.missRate::total     0.000100                       # miss rate for ReadReq accesses (Ratio)
board.cache_hierarchy.l1icaches.ReadReq.avgMissLatency::processor.cores.core.inst 58375.858672                       # average ReadReq miss latency ((Tick/Count))
board.cache_hierarchy.l1icaches.ReadReq.avgMissLatency::total 58375.858672                       # average ReadReq miss latency ((Tick/Count))
board.cache_hierarchy.l1icaches.ReadReq.mshrMisses::processor.cores.core.inst         1401                       # number of ReadReq MSHR misses (Count)
board.cache_hierarchy.l1icaches.ReadReq.mshrMisses::total         1401                       # number of ReadReq MSHR misses (Count)
board.cache_hierarchy.l1icaches.ReadReq.mshrMissLatency::processor.cores.core.inst     81473556                       # number of ReadReq MSHR miss ticks (Tick)
board.cache_hierarchy.l1icaches.ReadReq.mshrMissLatency::total     81473556                       # number of ReadReq MSHR miss ticks (Tick)
board.cache_hierarchy.l1icaches.ReadReq.mshrMissRate::processor.cores.core.inst     0.000100                       # mshr miss rate for ReadReq accesses (Ratio)
board.cache_hierarchy.l1icaches.ReadReq.mshrMissRate::total     0.000100                       # mshr miss rate for ReadReq accesses (Ratio)
board.cache_hierarchy.l1icaches.ReadReq.avgMshrMissLatency::processor.cores.core.inst 58153.858672                       # average ReadReq mshr miss latency ((Tick/Count))
board.cache_hierarchy.l1icaches.ReadReq.avgMshrMissLatency::total 58153.858672                       # average ReadReq mshr miss latency ((Tick/Count))
board.cache_hierarchy.l1icaches.power_state.pwrStateResidencyTicks::UNDEFINED   3922535316                       # Cumulative time (in ticks) in various power states (Tick)
board.cache_hierarchy.l1icaches.prefetcher.demandMshrMisses         1401                       # demands not covered by prefetchs (Count)
board.cache_hierarchy.l1icaches.prefetcher.pfIssued            0                       # number of hwpf issued (Count)
board.cache_hierarchy.l1icaches.prefetcher.pfUseful            0                       # number of useful prefetch (Count)
board.cache_hierarchy.l1icaches.prefetcher.pfUsefulButMiss            0                       # number of hit on prefetch but cache block is not in an usable state (Count)
board.cache_hierarchy.l1icaches.prefetcher.accuracy          nan                       # accuracy of the prefetcher (Count)
board.cache_hierarchy.l1icaches.prefetcher.coverage            0                       # coverage brought by this prefetcher (Count)
board.cache_hierarchy.l1icaches.prefetcher.pfHitInCache            0                       # number of prefetches hitting in cache (Count)
board.cache_hierarchy.l1icaches.prefetcher.pfHitInMSHR            0                       # number of prefetches hitting in a MSHR (Count)
board.cache_hierarchy.l1icaches.prefetcher.pfHitInWB            0                       # number of prefetches hit in the Write Buffer (Count)
board.cache_hierarchy.l1icaches.prefetcher.pfLate            0                       # number of late prefetches (hitting in cache, MSHR or WB) (Count)
board.cache_hierarchy.l1icaches.prefetcher.pfIdentified            0                       # number of prefetch candidates identified (Count)
board.cache_hierarchy.l1icaches.prefetcher.pfBufferHit            0                       # number of redundant prefetches already in prefetch queue (Count)
board.cache_hierarchy.l1icaches.prefetcher.pfInCache            0                       # number of redundant prefetches already in cache/mshr dropped (Count)
board.cache_hierarchy.l1icaches.prefetcher.pfRemovedDemand            0                       # number of prefetches dropped due to a demand for the same address (Count)
board.cache_hierarchy.l1icaches.prefetcher.pfRemovedFull            0                       # number of prefetches dropped due to prefetch queue size (Count)
board.cache_hierarchy.l1icaches.prefetcher.pfSpanPage            0                       # number of prefetches that crossed the page (Count)
board.cache_hierarchy.l1icaches.prefetcher.pfUsefulSpanPage            0                       # number of prefetches that is useful and crossed the page (Count)
board.cache_hierarchy.l1icaches.prefetcher.power_state.pwrStateResidencyTicks::UNDEFINED   3922535316                       # Cumulative time (in ticks) in various power states (Tick)
board.cache_hierarchy.l1icaches.tags.tagsInUse   503.117857                       # Average ticks per tags in use ((Tick/Count))
board.cache_hierarchy.l1icaches.tags.totalRefs     14035051                       # Total number of references to valid blocks. (Count)
board.cache_hierarchy.l1icaches.tags.sampledRefs         1401                       # Sample count of references to valid blocks. (Count)
board.cache_hierarchy.l1icaches.tags.avgRefs 10017.880799                       # Average number of references to valid blocks. ((Count/Count))
board.cache_hierarchy.l1icaches.tags.warmupTick        70152                       # The tick when the warmup percentage was hit. (Tick)
board.cache_hierarchy.l1icaches.tags.occupancies::processor.cores.core.inst   503.117857                       # Average occupied blocks per tick, per requestor ((Count/Tick))
board.cache_hierarchy.l1icaches.tags.avgOccs::processor.cores.core.inst     0.982652                       # Average percentage of cache occupancy ((Ratio/Tick))
board.cache_hierarchy.l1icaches.tags.avgOccs::total     0.982652                       # Average percentage of cache occupancy ((Ratio/Tick))
board.cache_hierarchy.l1icaches.tags.occupanciesTaskId::1024          512                       # Occupied blocks per task id (Count)
board.cache_hierarchy.l1icaches.tags.ageTaskId_1024::0          119                       # Occupied blocks per task id, per block age (Count)
board.cache_hierarchy.l1icaches.tags.ageTaskId_1024::1           40                       # Occupied blocks per task id, per block age (Count)
board.cache_hierarchy.l1icaches.tags.ageTaskId_1024::2           53                       # Occupied blocks per task id, per block age (Count)
board.cache_hierarchy.l1icaches.tags.ageTaskId_1024::3          300                       # Occupied blocks per task id, per block age (Count)
board.cache_hierarchy.l1icaches.tags.ratioOccsTaskId::1024            1                       # Ratio of occupied blocks and all blocks, per task id (Ratio)
board.cache_hierarchy.l1icaches.tags.tagAccesses    112281809                       # Number of tag accesses (Count)
board.cache_hierarchy.l1icaches.tags.dataAccesses    112281809                       # Number of data accesses (Count)
board.cache_hierarchy.l1icaches.tags.power_state.pwrStateResidencyTicks::UNDEFINED   3922535316                       # Cumulative time (in ticks) in various power states (Tick)
board.cache_hierarchy.l2bus.transDist::ReadResp        21764                       # Transaction distribution (Count)
board.cache_hierarchy.l2bus.transDist::WritebackDirty        25549                       # Transaction distribution (Count)
board.cache_hierarchy.l2bus.transDist::CleanEvict         4620                       # Transaction distribution (Count)
board.cache_hierarchy.l2bus.transDist::HardPFReq         5737                       # Transaction distribution (Count)
board.cache_hierarchy.l2bus.transDist::ReadExReq         9429                       # Transaction distribution (Count)
board.cache_hierarchy.l2bus.transDist::ReadExResp         9429                       # Transaction distribution (Count)
board.cache_hierarchy.l2bus.transDist::ReadSharedReq        21764                       # Transaction distribution (Count)
board.cache_hierarchy.l2bus.pktCount_board.cache_hierarchy.l1icaches.mem_side_port::board.cache_hierarchy.l2cache.cpu_side_port         3691                       # Packet count per connected requestor and responder (Count)
board.cache_hierarchy.l2bus.pktCount_board.cache_hierarchy.l1dcaches.mem_side_port::board.cache_hierarchy.l2cache.cpu_side_port        88864                       # Packet count per connected requestor and responder (Count)
board.cache_hierarchy.l2bus.pktCount::total        92555                       # Packet count per connected requestor and responder (Count)
board.cache_hierarchy.l2bus.pktSize_board.cache_hierarchy.l1icaches.mem_side_port::board.cache_hierarchy.l2cache.cpu_side_port        89664                       # Cumulative packet size per connected requestor and responder (Byte)
board.cache_hierarchy.l2bus.pktSize_board.cache_hierarchy.l1dcaches.mem_side_port::board.cache_hierarchy.l2cache.cpu_side_port      3541824                       # Cumulative packet size per connected requestor and responder (Byte)
board.cache_hierarchy.l2bus.pktSize::total      3631488                       # Cumulative packet size per connected requestor and responder (Byte)
board.cache_hierarchy.l2bus.snoops               5737                       # Total snoops (Count)
board.cache_hierarchy.l2bus.snoopTraffic            0                       # Total snoop traffic (Byte)
board.cache_hierarchy.l2bus.snoopFanout::samples        36930                       # Request fanout histogram (Count)
board.cache_hierarchy.l2bus.snoopFanout::mean     0.000027                       # Request fanout histogram (Count)
board.cache_hierarchy.l2bus.snoopFanout::stdev     0.005204                       # Request fanout histogram (Count)
board.cache_hierarchy.l2bus.snoopFanout::underflows            0      0.00%      0.00% # Request fanout histogram (Count)
board.cache_hierarchy.l2bus.snoopFanout::0        36929    100.00%    100.00% # Request fanout histogram (Count)
board.cache_hierarchy.l2bus.snoopFanout::1            1      0.00%    100.00% # Request fanout histogram (Count)
board.cache_hierarchy.l2bus.snoopFanout::2            0      0.00%    100.00% # Request fanout histogram (Count)
board.cache_hierarchy.l2bus.snoopFanout::overflows            0      0.00%    100.00% # Request fanout histogram (Count)
board.cache_hierarchy.l2bus.snoopFanout::min_value            0                       # Request fanout histogram (Count)
board.cache_hierarchy.l2bus.snoopFanout::max_value            1                       # Request fanout histogram (Count)
board.cache_hierarchy.l2bus.snoopFanout::total        36930                       # Request fanout histogram (Count)
board.cache_hierarchy.l2bus.power_state.pwrStateResidencyTicks::UNDEFINED   3922535316                       # Cumulative time (in ticks) in various power states (Tick)
board.cache_hierarchy.l2bus.reqLayer0.occupancy     27770849                       # Layer occupancy (ticks) (Tick)
board.cache_hierarchy.l2bus.reqLayer0.utilization          0.0                       # Layer utilization (Ratio)
board.cache_hierarchy.l2bus.respLayer0.occupancy       933066                       # Layer occupancy (ticks) (Tick)
board.cache_hierarchy.l2bus.respLayer0.utilization          0.0                       # Layer utilization (Ratio)
board.cache_hierarchy.l2bus.respLayer1.occupancy     19841472                       # Layer occupancy (ticks) (Tick)
board.cache_hierarchy.l2bus.respLayer1.utilization          0.0                       # Layer utilization (Ratio)
board.cache_hierarchy.l2bus.snoop_filter.totRequests        61362                       # Total number of requests made to the snoop filter. (Count)
board.cache_hierarchy.l2bus.snoop_filter.hitSingleRequests        30169                       # Number of requests hitting in the snoop filter with a single holder of the requested data. (Count)
board.cache_hierarchy.l2bus.snoop_filter.hitMultiRequests            1                       # Number of requests hitting in the snoop filter with multiple (>1) holders of the requested data. (Count)
board.cache_hierarchy.l2bus.snoop_filter.totSnoops            0                       # Total number of snoops made to the snoop filter. (Count)
board.cache_hierarchy.l2bus.snoop_filter.hitSingleSnoops            0                       # Number of snoops hitting in the snoop filter with a single holder of the requested data. (Count)
board.cache_hierarchy.l2bus.snoop_filter.hitMultiSnoops            0                       # Number of snoops hitting in the snoop filter with multiple (>1) holders of the requested data. (Count)
board.cache_hierarchy.l2cache.demandHits::cache_hierarchy.l1dcaches.prefetcher        15133                       # number of demand (read+write) hits (Count)
board.cache_hierarchy.l2cache.demandHits::processor.cores.core.inst           93                       # number of demand (read+write) hits (Count)
board.cache_hierarchy.l2cache.demandHits::processor.cores.core.data        10487                       # number of demand (read+write) hits (Count)
board.cache_hierarchy.l2cache.demandHits::total        25713                       # number of demand (read+write) hits (Count)
board.cache_hierarchy.l2cache.overallHits::cache_hierarchy.l1dcaches.prefetcher        15133                       # number of overall hits (Count)
board.cache_hierarchy.l2cache.overallHits::processor.cores.core.inst           93                       # number of overall hits (Count)
board.cache_hierarchy.l2cache.overallHits::processor.cores.core.data        10487                       # number of overall hits (Count)
board.cache_hierarchy.l2cache.overallHits::total        25713                       # number of overall hits (Count)
board.cache_hierarchy.l2cache.demandMisses::cache_hierarchy.l1dcaches.prefetcher          832                       # number of demand (read+write) misses (Count)
board.cache_hierarchy.l2cache.demandMisses::processor.cores.core.inst         1308                       # number of demand (read+write) misses (Count)
board.cache_hierarchy.l2cache.demandMisses::processor.cores.core.data         3340                       # number of demand (read+write) misses (Count)
board.cache_hierarchy.l2cache.demandMisses::total         5480                       # number of demand (read+write) misses (Count)
board.cache_hierarchy.l2cache.overallMisses::cache_hierarchy.l1dcaches.prefetcher          832                       # number of overall misses (Count)
board.cache_hierarchy.l2cache.overallMisses::processor.cores.core.inst         1308                       # number of overall misses (Count)
board.cache_hierarchy.l2cache.overallMisses::processor.cores.core.data         3340                       # number of overall misses (Count)
board.cache_hierarchy.l2cache.overallMisses::total         5480                       # number of overall misses (Count)
board.cache_hierarchy.l2cache.demandMissLatency::cache_hierarchy.l1dcaches.prefetcher     70733324                       # number of demand (read+write) miss ticks (Tick)
board.cache_hierarchy.l2cache.demandMissLatency::processor.cores.core.inst     80616636                       # number of demand (read+write) miss ticks (Tick)
board.cache_hierarchy.l2cache.demandMissLatency::processor.cores.core.data    230641572                       # number of demand (read+write) miss ticks (Tick)
board.cache_hierarchy.l2cache.demandMissLatency::total    381991532                       # number of demand (read+write) miss ticks (Tick)
board.cache_hierarchy.l2cache.overallMissLatency::cache_hierarchy.l1dcaches.prefetcher     70733324                       # number of overall miss ticks (Tick)
board.cache_hierarchy.l2cache.overallMissLatency::processor.cores.core.inst     80616636                       # number of overall miss ticks (Tick)
board.cache_hierarchy.l2cache.overallMissLatency::processor.cores.core.data    230641572                       # number of overall miss ticks (Tick)
board.cache_hierarchy.l2cache.overallMissLatency::total    381991532                       # number of overall miss ticks (Tick)
board.cache_hierarchy.l2cache.demandAccesses::cache_hierarchy.l1dcaches.prefetcher        15965                       # number of demand (read+write) accesses (Count)
board.cache_hierarchy.l2cache.demandAccesses::processor.cores.core.inst         1401                       # number of demand (read+write) accesses (Count)
board.cache_hierarchy.l2cache.demandAccesses::processor.cores.core.data        13827                       # number of demand (read+write) accesses (Count)
board.cache_hierarchy.l2cache.demandAccesses::total        31193                       # number of demand (read+write) accesses (Count)
board.cache_hierarchy.l2cache.overallAccesses::cache_hierarchy.l1dcaches.prefetcher        15965                       # number of overall (read+write) accesses (Count)
board.cache_hierarchy.l2cache.overallAccesses::processor.cores.core.inst         1401                       # number of overall (read+write) accesses (Count)
board.cache_hierarchy.l2cache.overallAccesses::processor.cores.core.data        13827                       # number of overall (read+write) accesses (Count)
board.cache_hierarchy.l2cache.overallAccesses::total        31193                       # number of overall (read+write) accesses (Count)
board.cache_hierarchy.l2cache.demandMissRate::cache_hierarchy.l1dcaches.prefetcher     0.052114                       # miss rate for demand accesses (Ratio)
board.cache_hierarchy.l2cache.demandMissRate::processor.cores.core.inst     0.933619                       # miss rate for demand accesses (Ratio)
board.cache_hierarchy.l2cache.demandMissRate::processor.cores.core.data     0.241556                       # miss rate for demand accesses (Ratio)
board.cache_hierarchy.l2cache.demandMissRate::total     0.175680                       # miss rate for demand accesses (Ratio)
board.cache_hierarchy.l2cache.overallMissRate::cache_hierarchy.l1dcaches.prefetcher     0.052114                       # miss rate for overall accesses (Ratio)
board.cache_hierarchy.l2cache.overallMissRate::processor.cores.core.inst     0.933619                       # miss rate for overall accesses (Ratio)
board.cache_hierarchy.l2cache.overallMissRate::processor.cores.core.data     0.241556                       # miss rate for overall accesses (Ratio)
board.cache_hierarchy.l2cache.overallMissRate::total     0.175680                       # miss rate for overall accesses (Ratio)
board.cache_hierarchy.l2cache.demandAvgMissLatency::cache_hierarchy.l1dcaches.prefetcher 85016.014423                       # average overall miss latency in ticks ((Tick/Count))
board.cache_hierarchy.l2cache.demandAvgMissLatency::processor.cores.core.inst 61633.513761                       # average overall miss latency in ticks ((Tick/Count))
board.cache_hierarchy.l2cache.demandAvgMissLatency::processor.cores.core.data 69054.362874                       # average overall miss latency in ticks ((Tick/Count))
board.cache_hierarchy.l2cache.demandAvgMissLatency::total 69706.483942                       # average overall miss latency in ticks ((Tick/Count))
board.cache_hierarchy.l2cache.overallAvgMissLatency::cache_hierarchy.l1dcaches.prefetcher 85016.014423                       # average overall miss latency ((Tick/Count))
board.cache_hierarchy.l2cache.overallAvgMissLatency::processor.cores.core.inst 61633.513761                       # average overall miss latency ((Tick/Count))
board.cache_hierarchy.l2cache.overallAvgMissLatency::processor.cores.core.data 69054.362874                       # average overall miss latency ((Tick/Count))
board.cache_hierarchy.l2cache.overallAvgMissLatency::total 69706.483942                       # average overall miss latency ((Tick/Count))
board.cache_hierarchy.l2cache.blockedCycles::no_mshrs            0                       # number of cycles access was blocked (Cycle)
board.cache_hierarchy.l2cache.blockedCycles::no_wbuffers            0                       # number of cycles access was blocked (Cycle)
board.cache_hierarchy.l2cache.blockedCycles::no_targets            0                       # number of cycles access was blocked (Cycle)
board.cache_hierarchy.l2cache.blockedCauses::no_mshrs            0                       # number of times access was blocked (Count)
board.cache_hierarchy.l2cache.blockedCauses::no_wbuffers            0                       # number of times access was blocked (Count)
board.cache_hierarchy.l2cache.blockedCauses::no_targets            0                       # number of times access was blocked (Count)
board.cache_hierarchy.l2cache.avgBlocked::no_mshrs          nan                       # average number of cycles each access was blocked ((Cycle/Count))
board.cache_hierarchy.l2cache.avgBlocked::no_wbuffers          nan                       # average number of cycles each access was blocked ((Cycle/Count))
board.cache_hierarchy.l2cache.avgBlocked::no_targets          nan                       # average number of cycles each access was blocked ((Cycle/Count))
board.cache_hierarchy.l2cache.demandMshrHits::cache_hierarchy.l1dcaches.prefetcher          677                       # number of demand (read+write) MSHR hits (Count)
board.cache_hierarchy.l2cache.demandMshrHits::processor.cores.core.data           24                       # number of demand (read+write) MSHR hits (Count)
board.cache_hierarchy.l2cache.demandMshrHits::total          701                       # number of demand (read+write) MSHR hits (Count)
board.cache_hierarchy.l2cache.overallMshrHits::cache_hierarchy.l1dcaches.prefetcher          677                       # number of overall MSHR hits (Count)
board.cache_hierarchy.l2cache.overallMshrHits::processor.cores.core.data           24                       # number of overall MSHR hits (Count)
board.cache_hierarchy.l2cache.overallMshrHits::total          701                       # number of overall MSHR hits (Count)
board.cache_hierarchy.l2cache.demandMshrMisses::cache_hierarchy.l1dcaches.prefetcher          155                       # number of demand (read+write) MSHR misses (Count)
board.cache_hierarchy.l2cache.demandMshrMisses::processor.cores.core.inst         1308                       # number of demand (read+write) MSHR misses (Count)
board.cache_hierarchy.l2cache.demandMshrMisses::processor.cores.core.data         3316                       # number of demand (read+write) MSHR misses (Count)
board.cache_hierarchy.l2cache.demandMshrMisses::total         4779                       # number of demand (read+write) MSHR misses (Count)
board.cache_hierarchy.l2cache.overallMshrMisses::cache_hierarchy.l1dcaches.prefetcher          155                       # number of overall MSHR misses (Count)
board.cache_hierarchy.l2cache.overallMshrMisses::cache_hierarchy.l2cache.prefetcher         5317                       # number of overall MSHR misses (Count)
board.cache_hierarchy.l2cache.overallMshrMisses::processor.cores.core.inst         1308                       # number of overall MSHR misses (Count)
board.cache_hierarchy.l2cache.overallMshrMisses::processor.cores.core.data         3316                       # number of overall MSHR misses (Count)
board.cache_hierarchy.l2cache.overallMshrMisses::total        10096                       # number of overall MSHR misses (Count)
board.cache_hierarchy.l2cache.demandMshrMissLatency::cache_hierarchy.l1dcaches.prefetcher     23998192                       # number of demand (read+write) MSHR miss ticks (Tick)
board.cache_hierarchy.l2cache.demandMshrMissLatency::processor.cores.core.inst     80326260                       # number of demand (read+write) MSHR miss ticks (Tick)
board.cache_hierarchy.l2cache.demandMshrMissLatency::processor.cores.core.data    228813180                       # number of demand (read+write) MSHR miss ticks (Tick)
board.cache_hierarchy.l2cache.demandMshrMissLatency::total    333137632                       # number of demand (read+write) MSHR miss ticks (Tick)
board.cache_hierarchy.l2cache.overallMshrMissLatency::cache_hierarchy.l1dcaches.prefetcher     23998192                       # number of overall MSHR miss ticks (Tick)
board.cache_hierarchy.l2cache.overallMshrMissLatency::cache_hierarchy.l2cache.prefetcher    433621814                       # number of overall MSHR miss ticks (Tick)
board.cache_hierarchy.l2cache.overallMshrMissLatency::processor.cores.core.inst     80326260                       # number of overall MSHR miss ticks (Tick)
board.cache_hierarchy.l2cache.overallMshrMissLatency::processor.cores.core.data    228813180                       # number of overall MSHR miss ticks (Tick)
board.cache_hierarchy.l2cache.overallMshrMissLatency::total    766759446                       # number of overall MSHR miss ticks (Tick)
board.cache_hierarchy.l2cache.demandMshrMissRate::cache_hierarchy.l1dcaches.prefetcher     0.009709                       # mshr miss ratio for demand accesses (Ratio)
board.cache_hierarchy.l2cache.demandMshrMissRate::processor.cores.core.inst     0.933619                       # mshr miss ratio for demand accesses (Ratio)
board.cache_hierarchy.l2cache.demandMshrMissRate::processor.cores.core.data     0.239821                       # mshr miss ratio for demand accesses (Ratio)
board.cache_hierarchy.l2cache.demandMshrMissRate::total     0.153207                       # mshr miss ratio for demand accesses (Ratio)
board.cache_hierarchy.l2cache.overallMshrMissRate::cache_hierarchy.l1dcaches.prefetcher     0.009709                       # mshr miss ratio for overall accesses (Ratio)
board.cache_hierarchy.l2cache.overallMshrMissRate::cache_hierarchy.l2cache.prefetcher          inf                       # mshr miss ratio for overall accesses (Ratio)
board.cache_hierarchy.l2cache.overallMshrMissRate::processor.cores.core.inst     0.933619                       # mshr miss ratio for overall accesses (Ratio)
board.cache_hierarchy.l2cache.overallMshrMissRate::processor.cores.core.data     0.239821                       # mshr miss ratio for overall accesses (Ratio)
board.cache_hierarchy.l2cache.overallMshrMissRate::total     0.323662                       # mshr miss ratio for overall accesses (Ratio)
board.cache_hierarchy.l2cache.demandAvgMshrMissLatency::cache_hierarchy.l1dcaches.prefetcher 154827.045161                       # average overall mshr miss latency ((Tick/Count))
board.cache_hierarchy.l2cache.demandAvgMshrMissLatency::processor.cores.core.inst 61411.513761                       # average overall mshr miss latency ((Tick/Count))
board.cache_hierarchy.l2cache.demandAvgMshrMissLatency::processor.cores.core.data 69002.768396                       # average overall mshr miss latency ((Tick/Count))
board.cache_hierarchy.l2cache.demandAvgMshrMissLatency::total 69708.648671                       # average overall mshr miss latency ((Tick/Count))
board.cache_hierarchy.l2cache.overallAvgMshrMissLatency::cache_hierarchy.l1dcaches.prefetcher 154827.045161                       # average overall mshr miss latency ((Tick/Count))
board.cache_hierarchy.l2cache.overallAvgMshrMissLatency::cache_hierarchy.l2cache.prefetcher 81553.848787                       # average overall mshr miss latency ((Tick/Count))
board.cache_hierarchy.l2cache.overallAvgMshrMissLatency::processor.cores.core.inst 61411.513761                       # average overall mshr miss latency ((Tick/Count))
board.cache_hierarchy.l2cache.overallAvgMshrMissLatency::processor.cores.core.data 69002.768396                       # average overall mshr miss latency ((Tick/Count))
board.cache_hierarchy.l2cache.overallAvgMshrMissLatency::total 75946.854794                       # average overall mshr miss latency ((Tick/Count))
board.cache_hierarchy.l2cache.replacements            0                       # number of replacements (Count)
board.cache_hierarchy.l2cache.HardPFReq.mshrMisses::cache_hierarchy.l2cache.prefetcher         5317                       # number of HardPFReq MSHR misses (Count)
board.cache_hierarchy.l2cache.HardPFReq.mshrMisses::total         5317                       # number of HardPFReq MSHR misses (Count)
board.cache_hierarchy.l2cache.HardPFReq.mshrMissLatency::cache_hierarchy.l2cache.prefetcher    433621814                       # number of HardPFReq MSHR miss ticks (Tick)
board.cache_hierarchy.l2cache.HardPFReq.mshrMissLatency::total    433621814                       # number of HardPFReq MSHR miss ticks (Tick)
board.cache_hierarchy.l2cache.HardPFReq.mshrMissRate::cache_hierarchy.l2cache.prefetcher          inf                       # mshr miss rate for HardPFReq accesses (Ratio)
board.cache_hierarchy.l2cache.HardPFReq.mshrMissRate::total          inf                       # mshr miss rate for HardPFReq accesses (Ratio)
board.cache_hierarchy.l2cache.HardPFReq.avgMshrMissLatency::cache_hierarchy.l2cache.prefetcher 81553.848787                       # average HardPFReq mshr miss latency ((Tick/Count))
board.cache_hierarchy.l2cache.HardPFReq.avgMshrMissLatency::total 81553.848787                       # average HardPFReq mshr miss latency ((Tick/Count))
board.cache_hierarchy.l2cache.ReadExReq.hits::processor.cores.core.data         6938                       # number of ReadExReq hits (Count)
board.cache_hierarchy.l2cache.ReadExReq.hits::total         6938                       # number of ReadExReq hits (Count)
board.cache_hierarchy.l2cache.ReadExReq.misses::processor.cores.core.data         2491                       # number of ReadExReq misses (Count)
board.cache_hierarchy.l2cache.ReadExReq.misses::total         2491                       # number of ReadExReq misses (Count)
board.cache_hierarchy.l2cache.ReadExReq.missLatency::processor.cores.core.data    167062992                       # number of ReadExReq miss ticks (Tick)
board.cache_hierarchy.l2cache.ReadExReq.missLatency::total    167062992                       # number of ReadExReq miss ticks (Tick)
board.cache_hierarchy.l2cache.ReadExReq.accesses::processor.cores.core.data         9429                       # number of ReadExReq accesses(hits+misses) (Count)
board.cache_hierarchy.l2cache.ReadExReq.accesses::total         9429                       # number of ReadExReq accesses(hits+misses) (Count)
board.cache_hierarchy.l2cache.ReadExReq.missRate::processor.cores.core.data     0.264185                       # miss rate for ReadExReq accesses (Ratio)
board.cache_hierarchy.l2cache.ReadExReq.missRate::total     0.264185                       # miss rate for ReadExReq accesses (Ratio)
board.cache_hierarchy.l2cache.ReadExReq.avgMissLatency::processor.cores.core.data 67066.636692                       # average ReadExReq miss latency ((Tick/Count))
board.cache_hierarchy.l2cache.ReadExReq.avgMissLatency::total 67066.636692                       # average ReadExReq miss latency ((Tick/Count))
board.cache_hierarchy.l2cache.ReadExReq.mshrMisses::processor.cores.core.data         2491                       # number of ReadExReq MSHR misses (Count)
board.cache_hierarchy.l2cache.ReadExReq.mshrMisses::total         2491                       # number of ReadExReq MSHR misses (Count)
board.cache_hierarchy.l2cache.ReadExReq.mshrMissLatency::processor.cores.core.data    166509990                       # number of ReadExReq MSHR miss ticks (Tick)
board.cache_hierarchy.l2cache.ReadExReq.mshrMissLatency::total    166509990                       # number of ReadExReq MSHR miss ticks (Tick)
board.cache_hierarchy.l2cache.ReadExReq.mshrMissRate::processor.cores.core.data     0.264185                       # mshr miss rate for ReadExReq accesses (Ratio)
board.cache_hierarchy.l2cache.ReadExReq.mshrMissRate::total     0.264185                       # mshr miss rate for ReadExReq accesses (Ratio)
board.cache_hierarchy.l2cache.ReadExReq.avgMshrMissLatency::processor.cores.core.data 66844.636692                       # average ReadExReq mshr miss latency ((Tick/Count))
board.cache_hierarchy.l2cache.ReadExReq.avgMshrMissLatency::total 66844.636692                       # average ReadExReq mshr miss latency ((Tick/Count))
board.cache_hierarchy.l2cache.ReadSharedReq.hits::cache_hierarchy.l1dcaches.prefetcher        15133                       # number of ReadSharedReq hits (Count)
board.cache_hierarchy.l2cache.ReadSharedReq.hits::processor.cores.core.inst           93                       # number of ReadSharedReq hits (Count)
board.cache_hierarchy.l2cache.ReadSharedReq.hits::processor.cores.core.data         3549                       # number of ReadSharedReq hits (Count)
board.cache_hierarchy.l2cache.ReadSharedReq.hits::total        18775                       # number of ReadSharedReq hits (Count)
board.cache_hierarchy.l2cache.ReadSharedReq.misses::cache_hierarchy.l1dcaches.prefetcher          832                       # number of ReadSharedReq misses (Count)
board.cache_hierarchy.l2cache.ReadSharedReq.misses::processor.cores.core.inst         1308                       # number of ReadSharedReq misses (Count)
board.cache_hierarchy.l2cache.ReadSharedReq.misses::processor.cores.core.data          849                       # number of ReadSharedReq misses (Count)
board.cache_hierarchy.l2cache.ReadSharedReq.misses::total         2989                       # number of ReadSharedReq misses (Count)
board.cache_hierarchy.l2cache.ReadSharedReq.missLatency::cache_hierarchy.l1dcaches.prefetcher     70733324                       # number of ReadSharedReq miss ticks (Tick)
board.cache_hierarchy.l2cache.ReadSharedReq.missLatency::processor.cores.core.inst     80616636                       # number of ReadSharedReq miss ticks (Tick)
board.cache_hierarchy.l2cache.ReadSharedReq.missLatency::processor.cores.core.data     63578580                       # number of ReadSharedReq miss ticks (Tick)
board.cache_hierarchy.l2cache.ReadSharedReq.missLatency::total    214928540                       # number of ReadSharedReq miss ticks (Tick)
board.cache_hierarchy.l2cache.ReadSharedReq.accesses::cache_hierarchy.l1dcaches.prefetcher        15965                       # number of ReadSharedReq accesses(hits+misses) (Count)
board.cache_hierarchy.l2cache.ReadSharedReq.accesses::processor.cores.core.inst         1401                       # number of ReadSharedReq accesses(hits+misses) (Count)
board.cache_hierarchy.l2cache.ReadSharedReq.accesses::processor.cores.core.data         4398                       # number of ReadSharedReq accesses(hits+misses) (Count)
board.cache_hierarchy.l2cache.ReadSharedReq.accesses::total        21764                       # number of ReadSharedReq accesses(hits+misses) (Count)
board.cache_hierarchy.l2cache.ReadSharedReq.missRate::cache_hierarchy.l1dcaches.prefetcher     0.052114                       # miss rate for ReadSharedReq accesses (Ratio)
board.cache_hierarchy.l2cache.ReadSharedReq.missRate::processor.cores.core.inst     0.933619                       # miss rate for ReadSharedReq accesses (Ratio)
board.cache_hierarchy.l2cache.ReadSharedReq.missRate::processor.cores.core.data     0.193042                       # miss rate for ReadSharedReq accesses (Ratio)
board.cache_hierarchy.l2cache.ReadSharedReq.missRate::total     0.137337                       # miss rate for ReadSharedReq accesses (Ratio)
board.cache_hierarchy.l2cache.ReadSharedReq.avgMissLatency::cache_hierarchy.l1dcaches.prefetcher 85016.014423                       # average ReadSharedReq miss latency ((Tick/Count))
board.cache_hierarchy.l2cache.ReadSharedReq.avgMissLatency::processor.cores.core.inst 61633.513761                       # average ReadSharedReq miss latency ((Tick/Count))
board.cache_hierarchy.l2cache.ReadSharedReq.avgMissLatency::processor.cores.core.data 74886.431095                       # average ReadSharedReq miss latency ((Tick/Count))
board.cache_hierarchy.l2cache.ReadSharedReq.avgMissLatency::total 71906.503847                       # average ReadSharedReq miss latency ((Tick/Count))
board.cache_hierarchy.l2cache.ReadSharedReq.mshrHits::cache_hierarchy.l1dcaches.prefetcher          677                       # number of ReadSharedReq MSHR hits (Count)
board.cache_hierarchy.l2cache.ReadSharedReq.mshrHits::processor.cores.core.data           24                       # number of ReadSharedReq MSHR hits (Count)
board.cache_hierarchy.l2cache.ReadSharedReq.mshrHits::total          701                       # number of ReadSharedReq MSHR hits (Count)
board.cache_hierarchy.l2cache.ReadSharedReq.mshrMisses::cache_hierarchy.l1dcaches.prefetcher          155                       # number of ReadSharedReq MSHR misses (Count)
board.cache_hierarchy.l2cache.ReadSharedReq.mshrMisses::processor.cores.core.inst         1308                       # number of ReadSharedReq MSHR misses (Count)
board.cache_hierarchy.l2cache.ReadSharedReq.mshrMisses::processor.cores.core.data          825                       # number of ReadSharedReq MSHR misses (Count)
board.cache_hierarchy.l2cache.ReadSharedReq.mshrMisses::total         2288                       # number of ReadSharedReq MSHR misses (Count)
board.cache_hierarchy.l2cache.ReadSharedReq.mshrMissLatency::cache_hierarchy.l1dcaches.prefetcher     23998192                       # number of ReadSharedReq MSHR miss ticks (Tick)
board.cache_hierarchy.l2cache.ReadSharedReq.mshrMissLatency::processor.cores.core.inst     80326260                       # number of ReadSharedReq MSHR miss ticks (Tick)
board.cache_hierarchy.l2cache.ReadSharedReq.mshrMissLatency::processor.cores.core.data     62303190                       # number of ReadSharedReq MSHR miss ticks (Tick)
board.cache_hierarchy.l2cache.ReadSharedReq.mshrMissLatency::total    166627642                       # number of ReadSharedReq MSHR miss ticks (Tick)
board.cache_hierarchy.l2cache.ReadSharedReq.mshrMissRate::cache_hierarchy.l1dcaches.prefetcher     0.009709                       # mshr miss rate for ReadSharedReq accesses (Ratio)
board.cache_hierarchy.l2cache.ReadSharedReq.mshrMissRate::processor.cores.core.inst     0.933619                       # mshr miss rate for ReadSharedReq accesses (Ratio)
board.cache_hierarchy.l2cache.ReadSharedReq.mshrMissRate::processor.cores.core.data     0.187585                       # mshr miss rate for ReadSharedReq accesses (Ratio)
board.cache_hierarchy.l2cache.ReadSharedReq.mshrMissRate::total     0.105128                       # mshr miss rate for ReadSharedReq accesses (Ratio)
board.cache_hierarchy.l2cache.ReadSharedReq.avgMshrMissLatency::cache_hierarchy.l1dcaches.prefetcher 154827.045161                       # average ReadSharedReq mshr miss latency ((Tick/Count))
board.cache_hierarchy.l2cache.ReadSharedReq.avgMshrMissLatency::processor.cores.core.inst 61411.513761                       # average ReadSharedReq mshr miss latency ((Tick/Count))
board.cache_hierarchy.l2cache.ReadSharedReq.avgMshrMissLatency::processor.cores.core.data 75519.018182                       # average ReadSharedReq mshr miss latency ((Tick/Count))
board.cache_hierarchy.l2cache.ReadSharedReq.avgMshrMissLatency::total 72826.766608                       # average ReadSharedReq mshr miss latency ((Tick/Count))
board.cache_hierarchy.l2cache.WritebackDirty.hits::writebacks        25549                       # number of WritebackDirty hits (Count)
board.cache_hierarchy.l2cache.WritebackDirty.hits::total        25549                       # number of WritebackDirty hits (Count)
board.cache_hierarchy.l2cache.WritebackDirty.accesses::writebacks        25549                       # number of WritebackDirty accesses(hits+misses) (Count)
board.cache_hierarchy.l2cache.WritebackDirty.accesses::total        25549                       # number of WritebackDirty accesses(hits+misses) (Count)
board.cache_hierarchy.l2cache.power_state.pwrStateResidencyTicks::UNDEFINED   3922535316                       # Cumulative time (in ticks) in various power states (Tick)
board.cache_hierarchy.l2cache.prefetcher.demandMshrMisses         4779                       # demands not covered by prefetchs (Count)
board.cache_hierarchy.l2cache.prefetcher.pfIssued        17829                       # number of hwpf issued (Count)
board.cache_hierarchy.l2cache.prefetcher.pfUseful         4476                       # number of useful prefetch (Count)
board.cache_hierarchy.l2cache.prefetcher.pfUsefulButMiss            0                       # number of hit on prefetch but cache block is not in an usable state (Count)
board.cache_hierarchy.l2cache.prefetcher.accuracy     0.251052                       # accuracy of the prefetcher (Count)
[...]
board.processor.cores.core.commitStats0.committedInstType::SimdShift            0      0.00%     80.22% # Class of committed instruction. (Count)
board.processor.cores.core.commitStats0.committedInstType::SimdShiftAcc            0      0.00%     80.22% # Class of committed instruction. (Count)
board.processor.cores.core.commitStats0.committedInstType::SimdDiv            0      0.00%     80.22% # Class of committed instruction. (Count)
board.processor.cores.core.commitStats0.committedInstType::SimdSqrt            0      0.00%     80.22% # Class of committed instruction. (Count)
board.processor.cores.core.commitStats0.committedInstType::SimdFloatAdd            0      0.00%     80.22% # Class of committed instruction. (Count)
board.processor.cores.core.commitStats0.committedInstType::SimdFloatAlu            0      0.00%     80.22% # Class of committed instruction. (Count)
board.processor.cores.core.commitStats0.committedInstType::SimdFloatCmp            0      0.00%     80.22% # Class of committed instruction. (Count)
board.processor.cores.core.commitStats0.committedInstType::SimdFloatCvt            0      0.00%     80.22% # Class of committed instruction. (Count)
board.processor.cores.core.commitStats0.committedInstType::SimdFloatDiv            0      0.00%     80.22% # Class of committed instruction. (Count)
board.processor.cores.core.commitStats0.committedInstType::SimdFloatMisc            0      0.00%     80.22% # Class of committed instruction. (Count)
board.processor.cores.core.commitStats0.committedInstType::SimdFloatMult            0      0.00%     80.22% # Class of committed instruction. (Count)
board.processor.cores.core.commitStats0.committedInstType::SimdFloatMultAcc            0      0.00%     80.22% # Class of committed instruction. (Count)
board.processor.cores.core.commitStats0.committedInstType::SimdFloatMatMultAcc            0      0.00%     80.22% # Class of committed instruction. (Count)
board.processor.cores.core.commitStats0.committedInstType::SimdFloatSqrt            0      0.00%     80.22% # Class of committed instruction. (Count)
board.processor.cores.core.commitStats0.committedInstType::SimdReduceAdd            0      0.00%     80.22% # Class of committed instruction. (Count)
board.processor.cores.core.commitStats0.committedInstType::SimdReduceAlu            0      0.00%     80.22% # Class of committed instruction. (Count)
board.processor.cores.core.commitStats0.committedInstType::SimdReduceCmp            0      0.00%     80.22% # Class of committed instruction. (Count)
board.processor.cores.core.commitStats0.committedInstType::SimdFloatReduceAdd            0      0.00%     80.22% # Class of committed instruction. (Count)
board.processor.cores.core.commitStats0.committedInstType::SimdFloatReduceCmp            0      0.00%     80.22% # Class of committed instruction. (Count)
board.processor.cores.core.commitStats0.committedInstType::SimdAes            0      0.00%     80.22% # Class of committed instruction. (Count)
board.processor.cores.core.commitStats0.committedInstType::SimdAesMix            0      0.00%     80.22% # Class of committed instruction. (Count)
board.processor.cores.core.commitStats0.committedInstType::SimdSha1Hash            0      0.00%     80.22% # Class of committed instruction. (Count)
board.processor.cores.core.commitStats0.committedInstType::SimdSha1Hash2            0      0.00%     80.22% # Class of committed instruction. (Count)
board.processor.cores.core.commitStats0.committedInstType::SimdSha256Hash            0      0.00%     80.22% # Class of committed instruction. (Count)
board.processor.cores.core.commitStats0.committedInstType::SimdSha256Hash2            0      0.00%     80.22% # Class of committed instruction. (Count)
board.processor.cores.core.commitStats0.committedInstType::SimdShaSigma2            0      0.00%     80.22% # Class of committed instruction. (Count)
board.processor.cores.core.commitStats0.committedInstType::SimdShaSigma3            0      0.00%     80.22% # Class of committed instruction. (Count)
board.processor.cores.core.commitStats0.committedInstType::SimdSha3            0      0.00%     80.22% # Class of committed instruction. (Count)
board.processor.cores.core.commitStats0.committedInstType::SimdSm4e            0      0.00%     80.22% # Class of committed instruction. (Count)
board.processor.cores.core.commitStats0.committedInstType::SimdCrc            0      0.00%     80.22% # Class of committed instruction. (Count)
board.processor.cores.core.commitStats0.committedInstType::SimdPredAlu            0      0.00%     80.22% # Class of committed instruction. (Count)
board.processor.cores.core.commitStats0.committedInstType::SimdDotProd            0      0.00%     80.22% # Class of committed instruction. (Count)
board.processor.cores.core.commitStats0.committedInstType::Matrix            0      0.00%     80.22% # Class of committed instruction. (Count)
board.processor.cores.core.commitStats0.committedInstType::MatrixMov            0      0.00%     80.22% # Class of committed instruction. (Count)
board.processor.cores.core.commitStats0.committedInstType::MatrixOP            0      0.00%     80.22% # Class of committed instruction. (Count)
board.processor.cores.core.commitStats0.committedInstType::MemRead      1529794     14.60%     94.82% # Class of committed instruction. (Count)
board.processor.cores.core.commitStats0.committedInstType::MemWrite       542468      5.18%    100.00% # Class of committed instruction. (Count)
board.processor.cores.core.commitStats0.committedInstType::FloatMemRead            6      0.00%    100.00% # Class of committed instruction. (Count)
board.processor.cores.core.commitStats0.committedInstType::FloatMemWrite           16      0.00%    100.00% # Class of committed instruction. (Count)
board.processor.cores.core.commitStats0.committedInstType::InstPrefetch            0      0.00%    100.00% # Class of committed instruction. (Count)
board.processor.cores.core.commitStats0.committedInstType::SimdUnitStrideLoad            0      0.00%    100.00% # Class of committed instruction. (Count)
board.processor.cores.core.commitStats0.committedInstType::SimdUnitStrideStore            0      0.00%    100.00% # Class of committed instruction. (Count)
board.processor.cores.core.commitStats0.committedInstType::SimdUnitStrideMaskLoad            0      0.00%    100.00% # Class of committed instruction. (Count)
board.processor.cores.core.commitStats0.committedInstType::SimdUnitStrideMaskStore            0      0.00%    100.00% # Class of committed instruction. (Count)
board.processor.cores.core.commitStats0.committedInstType::SimdStridedLoad            0      0.00%    100.00% # Class of committed instruction. (Count)
board.processor.cores.core.commitStats0.committedInstType::SimdStridedStore            0      0.00%    100.00% # Class of committed instruction. (Count)
board.processor.cores.core.commitStats0.committedInstType::SimdIndexedLoad            0      0.00%    100.00% # Class of committed instruction. (Count)
board.processor.cores.core.commitStats0.committedInstType::SimdIndexedStore            0      0.00%    100.00% # Class of committed instruction. (Count)
board.processor.cores.core.commitStats0.committedInstType::SimdWholeRegisterLoad            0      0.00%    100.00% # Class of committed instruction. (Count)
board.processor.cores.core.commitStats0.committedInstType::SimdWholeRegisterStore            0      0.00%    100.00% # Class of committed instruction. (Count)
board.processor.cores.core.commitStats0.committedInstType::SimdUnitStrideFaultOnlyFirstLoad            0      0.00%    100.00% # Class of committed instruction. (Count)
board.processor.cores.core.commitStats0.committedInstType::SimdUnitStrideSegmentedLoad            0      0.00%    100.00% # Class of committed instruction. (Count)
board.processor.cores.core.commitStats0.committedInstType::SimdUnitStrideSegmentedStore            0      0.00%    100.00% # Class of committed instruction. (Count)
board.processor.cores.core.commitStats0.committedInstType::SimdUnitStrideSegmentedFaultOnlyFirstLoad            0      0.00%    100.00% # Class of committed instruction. (Count)
board.processor.cores.core.commitStats0.committedInstType::SimdStrideSegmentedLoad            0      0.00%    100.00% # Class of committed instruction. (Count)
board.processor.cores.core.commitStats0.committedInstType::SimdStrideSegmentedStore            0      0.00%    100.00% # Class of committed instruction. (Count)
board.processor.cores.core.commitStats0.committedInstType::SimdExt            0      0.00%    100.00% # Class of committed instruction. (Count)
board.processor.cores.core.commitStats0.committedInstType::SimdFloatExt            0      0.00%    100.00% # Class of committed instruction. (Count)
board.processor.cores.core.commitStats0.committedInstType::SimdConfig            0      0.00%    100.00% # Class of committed instruction. (Count)
board.processor.cores.core.commitStats0.committedInstType::SimdBf16Add            0      0.00%    100.00% # Class of committed instruction. (Count)
board.processor.cores.core.commitStats0.committedInstType::SimdBf16Cmp            0      0.00%    100.00% # Class of committed instruction. (Count)
board.processor.cores.core.commitStats0.committedInstType::SimdBf16Cvt            0      0.00%    100.00% # Class of committed instruction. (Count)
board.processor.cores.core.commitStats0.committedInstType::SimdBf16DotProd            0      0.00%    100.00% # Class of committed instruction. (Count)
board.processor.cores.core.commitStats0.committedInstType::SimdBf16MatMultAcc            0      0.00%    100.00% # Class of committed instruction. (Count)
board.processor.cores.core.commitStats0.committedInstType::SimdBf16Mult            0      0.00%    100.00% # Class of committed instruction. (Count)
board.processor.cores.core.commitStats0.committedInstType::SimdBf16MultAcc            0      0.00%    100.00% # Class of committed instruction. (Count)
board.processor.cores.core.commitStats0.committedInstType::Bf16Cvt            0      0.00%    100.00% # Class of committed instruction. (Count)
board.processor.cores.core.commitStats0.committedInstType::System            0      0.00%    100.00% # Class of committed instruction. (Count)
board.processor.cores.core.commitStats0.committedInstType::total     10479079                       # Class of committed instruction. (Count)
board.processor.cores.core.commitStats0.committedControl::IsControl      1759218                       # Class of control type instructions committed (Count)
board.processor.cores.core.commitStats0.committedControl::IsDirectControl      1724345                       # Class of control type instructions committed (Count)
board.processor.cores.core.commitStats0.committedControl::IsIndirectControl        34873                       # Class of control type instructions committed (Count)
board.processor.cores.core.commitStats0.committedControl::IsCondControl      1628220                       # Class of control type instructions committed (Count)
board.processor.cores.core.commitStats0.committedControl::IsUncondControl       130998                       # Class of control type instructions committed (Count)
board.processor.cores.core.commitStats0.committedControl::IsCall        23358                       # Class of control type instructions committed (Count)
board.processor.cores.core.commitStats0.committedControl::IsReturn        23350                       # Class of control type instructions committed (Count)
board.processor.cores.core.commitStats0.functionCalls        23358                       # Number of function calls committed (Count)
board.processor.cores.core.commitStats0.numCallsReturns        46708                       # Number of function calls and returns committed (Count)
board.processor.cores.core.exec_context.thread_0.numMatAluAccesses            0                       # Number of matrix alu accesses (Count)
board.processor.cores.core.exec_context.thread_0.numMatInsts            0                       # Number of matrix instructions (Count)
board.processor.cores.core.exec_context.thread_0.numIdleCycles     0.004505                       # Number of idle cycles (Cycle)
board.processor.cores.core.exec_context.thread_0.numBusyCycles 17669077.995495                       # Number of busy cycles (Cycle)
board.processor.cores.core.exec_context.thread_0.notIdleFraction     1.000000                       # Percentage of non-idle cycles (Ratio)
board.processor.cores.core.exec_context.thread_0.idleFraction     0.000000                       # Percentage of idle cycles (Ratio)
board.processor.cores.core.executeStats0.numInsts     10347906                       # Number of executed instructions (Count)
board.processor.cores.core.executeStats0.numNop            0                       # Number of nop insts executed (Count)
board.processor.cores.core.executeStats0.numBranches      1759218                       # Number of branches executed (Count)
board.processor.cores.core.executeStats0.numLoadInsts      1464217                       # Number of load instructions executed (Count)
board.processor.cores.core.executeStats0.numStoreInsts       608067                       # Number of stores executed (Count)
board.processor.cores.core.executeStats0.instRate     0.585651                       # Inst execution rate ((Count/Cycle))
board.processor.cores.core.executeStats0.numFpAluAccesses           40                       # Number of float alu accesses (Count)
board.processor.cores.core.executeStats0.numFpRegReads           34                       # Number of times the floating registers were read (Count)
board.processor.cores.core.executeStats0.numFpRegWrites           16                       # Number of times the floating registers were written (Count)
board.processor.cores.core.executeStats0.numIntAluAccesses     10274969                       # Number of integer alu accesses (Count)
board.processor.cores.core.executeStats0.numIntRegReads     14655462                       # Number of times the integer registers were read (Count)
board.processor.cores.core.executeStats0.numIntRegWrites      8036797                       # Number of times the integer registers were written (Count)
board.processor.cores.core.executeStats0.numMemRefs      2072284                       # Number of memory refs (Count)
board.processor.cores.core.executeStats0.numMiscRegReads          188                       # Number of times the Misc registers were read (Count)
board.processor.cores.core.executeStats0.numMiscRegWrites           42                       # Number of times the Misc registers were written (Count)
board.processor.cores.core.executeStats0.numVecAluAccesses            0                       # Number of vector alu accesses (Count)
board.processor.cores.core.executeStats0.numDiscardedOps            0                       # Number of ops (including micro ops) which were discarded before commit (Count)
board.processor.cores.core.fetchStats0.numInsts     10348055                       # Number of instructions fetched (thread level) (Count)
board.processor.cores.core.fetchStats0.numOps     10479228                       # Number of ops (including micro ops) fetched (thread level) (Count)
board.processor.cores.core.fetchStats0.fetchRate     0.585659                       # Number of inst fetches per cycle ((Count/Cycle))
board.processor.cores.core.fetchStats0.numBranches      1759218                       # Number of branches fetched (Count)
board.processor.cores.core.fetchStats0.branchRate     0.099565                       # Number of branch fetches per cycle (Ratio)
board.processor.cores.core.fetchStats0.numFetchSuspends            0                       # Number of times Execute suspended instruction fetching (Count)
board.processor.cores.core.mmu.dtb.readHits            0                       # read hits (Count)
board.processor.cores.core.mmu.dtb.readMisses            0                       # read misses (Count)
board.processor.cores.core.mmu.dtb.readAccesses            0                       # read accesses (Count)
board.processor.cores.core.mmu.dtb.writeHits            0                       # write hits (Count)
board.processor.cores.core.mmu.dtb.writeMisses            0                       # write misses (Count)
board.processor.cores.core.mmu.dtb.writeAccesses            0                       # write accesses (Count)
board.processor.cores.core.mmu.dtb.hits             0                       # Total TLB (read and write) hits (Count)
board.processor.cores.core.mmu.dtb.misses            0                       # Total TLB (read and write) misses (Count)
board.processor.cores.core.mmu.dtb.accesses            0                       # Total TLB (read and write) accesses (Count)
board.processor.cores.core.mmu.dtb.walker.num_4kb_walks            0                       # Completed page walks with 4KB pages (Count)
board.processor.cores.core.mmu.dtb.walker.num_64kb_walks            0                       # Completed page walks with 64KB pages (Count)
board.processor.cores.core.mmu.dtb.walker.num_2mb_walks            0                       # Completed page walks with 2MB pages (Count)
board.processor.cores.core.mmu.dtb.walker.power_state.pwrStateResidencyTicks::UNDEFINED   3922535316                       # Cumulative time (in ticks) in various power states (Tick)
board.processor.cores.core.mmu.itb.readHits            0                       # read hits (Count)
board.processor.cores.core.mmu.itb.readMisses            0                       # read misses (Count)
board.processor.cores.core.mmu.itb.readAccesses            0                       # read accesses (Count)
board.processor.cores.core.mmu.itb.writeHits            0                       # write hits (Count)
board.processor.cores.core.mmu.itb.writeMisses            0                       # write misses (Count)
board.processor.cores.core.mmu.itb.writeAccesses            0                       # write accesses (Count)
board.processor.cores.core.mmu.itb.hits             0                       # Total TLB (read and write) hits (Count)
board.processor.cores.core.mmu.itb.misses            0                       # Total TLB (read and write) misses (Count)
board.processor.cores.core.mmu.itb.accesses            0                       # Total TLB (read and write) accesses (Count)
board.processor.cores.core.mmu.itb.walker.num_4kb_walks            0                       # Completed page walks with 4KB pages (Count)
board.processor.cores.core.mmu.itb.walker.num_64kb_walks            0                       # Completed page walks with 64KB pages (Count)
board.processor.cores.core.mmu.itb.walker.num_2mb_walks            0                       # Completed page walks with 2MB pages (Count)
board.processor.cores.core.mmu.itb.walker.power_state.pwrStateResidencyTicks::UNDEFINED   3922535316                       # Cumulative time (in ticks) in various power states (Tick)
board.processor.cores.core.power_state.pwrStateResidencyTicks::ON   3922535316                       # Cumulative time (in ticks) in various power states (Tick)
board.processor.cores.core.thread_0.numInsts     10347906                       # Number of Instructions committed (Count)
board.processor.cores.core.thread_0.numOps     10479079                       # Number of Ops committed (Count)
board.processor.cores.core.thread_0.numMemRefs      2072284                       # Number of Memory References (Count)
board.processor.cores.core.workload.numSyscalls           50                       # Number of system calls (Count)
board.workload.inst.arm                             0                       # number of arm instructions executed (Count)
board.workload.inst.quiesce                         0                       # number of quiesce instructions executed (Count)

---------- End Simulation Statistics   ----------
